CHEMBL11685
  SciTegic12231509382D

  1  0  0  0  0  0            999 V2000
    0.9292   -2.4917    0.0000 Br  0  5
M  CHG  1   1  -1
M  END
> <chembl_id>
CHEMBL11685

$$$$
CHEMBL17564
  SciTegic10311311082D

  1  0  0  0  0  0            999 V2000
    0.0000    0.0000    0.0000 C   0  0
M  END
> <chembl_id>
CHEMBL17564

$$$$
CHEMBL19429
  SciTegic01311418062D

  1  0  0  0  0  0            999 V2000
    1.2042   -1.1542    0.0000 Cl  0  5
M  CHG  1   1  -1
M  END
> <chembl_id>
CHEMBL19429

$$$$
CHEMBL38703
  SciTegic12231509382D

  1  0  0  0  0  0            999 V2000
   13.0092   -4.9004    0.0000 S   0  5
M  CHG  1   1  -1
M  END
> <chembl_id>
CHEMBL38703

$$$$
CHEMBL55643
  SciTegic11211215462D

  1  0  0  0  0  0            999 V2000
    2.2750   -0.8125    0.0000 Cu  0  2
M  CHG  1   1   2
M  END
> <chembl_id>
CHEMBL55643

$$$$
CHEMBL56175
  SciTegic10311311082D

  1  0  0  0  0  0            999 V2000
    0.0000    0.0000    0.0000 Ni  0  2
M  CHG  1   1   2
M  END
> <chembl_id>
CHEMBL56175

$$$$
CHEMBL140812
          11280715302D 1   1.00000     0.00000     0

  1  0  0     0  0            999 V2000
    0.9292   -2.4917    0.0000 Br  0  5  0  0  0  0           0  0  0
M  CHG  1   1  -1
M  ISO  1   1  76
M  END
> <chembl_id>
CHEMBL140812

$$$$
CHEMBL1248
          11280715302D 1   1.00000     0.00000     0

  1  0  0     0  0            999 V2000
   -2.3500    0.7833    0.0000 F  -1  5  0  0  0  0           0  0  0
M  CHG  1   1  -1
M  ISO  1   1  18
M  END
> <chembl_id>
CHEMBL1248

$$$$
CHEMBL1249
          11280715302D 1   1.00000     0.00000     0

  1  0  0     0  0            999 V2000
   -2.1333   -0.7750    0.0000 I   0  5  0  0  0  0           0  0  0
M  CHG  1   1  -1
M  ISO  1   1 123
M  END
> <chembl_id>
CHEMBL1249

$$$$
CHEMBL185537
  SciTegic12231509382D

  1  0  0  0  0  0            999 V2000
    5.5750   -4.9167    0.0000 I   0  5
M  CHG  1   1  -1
M  END
> <chembl_id>
CHEMBL185537

$$$$
CHEMBL1362
  SciTegic12231509382D

  1  0  0  0  0  0            999 V2000
   -2.3500    0.7833    0.0000 F   0  5
M  CHG  1   1  -1
M  END
> <chembl_id>
CHEMBL1362

$$$$
CHEMBL3343679
  SciTegic02271515152D

  1  0  0  0  0  0            999 V2000
   15.8733  -14.6021    0.0000 I   0  5
M  CHG  1   1  -1
M  ISO  1   1 125
M  END
> <chembl_id>
CHEMBL3343679

$$$$
CHEMBL1796997
  SciTegic07111214002D

  1  0  0  0  0  0            999 V2000
   -3.1917    1.0958    0.0000 He  0  0
M  END
> <chembl_id>
CHEMBL1796997

$$$$
CHEMBL1098659
  SciTegic12231509382D

  1  0  0  0  0  0            999 V2000
   -1.0208   -7.6750    0.0000 O   0  0
M  END
> <chembl_id>
CHEMBL1098659

$$$$
CHEMBL1160819
  SciTegic05191616062D

  1  0  0  0  0  0            999 V2000
    1.3000    0.7500    0.0000 N   0  0
M  END
> <chembl_id>
CHEMBL1160819

$$$$
CHEMBL1200673
  SciTegic01161211252D

  1  0  0  0  0  0            999 V2000
    2.1792    0.8125    0.0000 Xe  0  0
M  ISO  1   1 127
M  END
> <chembl_id>
CHEMBL1200673

$$$$
CHEMBL1200685
  SciTegic01161211252D

  1  0  0  0  0  0            999 V2000
    2.1792    0.8125    0.0000 Xe  0  0
M  ISO  1   1 133
M  END
> <chembl_id>
CHEMBL1200685

$$$$
CHEMBL1200739
  SciTegic11201417462D

  1  0  0  0  0  0            999 V2000
   -2.1333   -6.3417    0.0000 S   0  0
M  END
> <chembl_id>
CHEMBL1200739

$$$$
CHEMBL1201096
  SciTegic01161211252D

  1  0  0  0  0  0            999 V2000
   -0.0958    0.2500    0.0000 Kr  0  0
M  ISO  1   1  81
M  END
> <chembl_id>
CHEMBL1201096

$$$$
CHEMBL1201189
  SciTegic07111214002D

  1  0  0  0  0  0            999 V2000
   -0.1333   -0.4083    0.0000 N   0  0
M  ISO  1   1  13
M  END
> <chembl_id>
CHEMBL1201189

$$$$
CHEMBL1231461
  Mrv0541 04051115152D          

  1  0  0  0  0  0            999 V2000
    0.0000    0.0000   -0.0096 Br  0  0  0  0  0  0  0  0  0  0  0  0
M  END
> <chembl_id>
CHEMBL1231461

$$$$
CHEMBL1233550
  SciTegic12231509382D

  1  0  0  0  0  0            999 V2000
    3.6830   -7.1009    0.0000 I   0  0
M  END
> <chembl_id>
CHEMBL1233550

$$$$
CHEMBL1230866
  SciTegic05201615392D

  1  0  0  0  0  0            999 V2000
    0.0000    0.0000    0.0000 Ag  0  3
M  CHG  1   1   1
M  END
> <chembl_id>
CHEMBL1230866

$$$$
CHEMBL1231821
  Mrv0541 04051115152D          

  1  0  0  0  0  0            999 V2000
    0.0000    0.0000   -0.0198 Cl  0  0  0  0  0  0  0  0  0  0  0  0
M  END
> <chembl_id>
CHEMBL1231821

$$$$
CHEMBL1232767
  SciTegic12231509382D

  1  0  0  0  0  0            999 V2000
   -4.0366    2.6223    0.0000 F   0  0
M  END
> <chembl_id>
CHEMBL1232767

$$$$
CHEMBL1235891
  Mrv0541 04051115152D          

  1  0  0  0  0  0            999 V2000
   -0.0139    0.0000    0.0000 Se  0  0  0  0  0  0  0  0  0  0  0  0
M  END
> <chembl_id>
CHEMBL1235891

$$$$
CHEMBL1231052
  Mrv0541 04051115152D          

  1  0  0  0  0  0            999 V2000
    0.0000    0.0107    0.0000 As  0  0  0  0  0  0  0  0  0  0  0  0
M  END
> <chembl_id>
CHEMBL1231052

$$$$
CHEMBL1233877
  SciTegic12231509382D

  1  0  0  0  0  0            999 V2000
    0.7750   -2.8750    0.0000 Kr  0  0
M  END
> <chembl_id>
CHEMBL1233877

$$$$
CHEMBL1236970
  Mrv0541 04051115152D          

  1  0  0  0  0  0            999 V2000
    0.0000    0.0000    0.0000 Zn  0  2  0  0  0  0  0  0  0  0  0  0
M  CHG  1   1   2
M  END
> <chembl_id>
CHEMBL1236970

$$$$
CHEMBL1234004
  Mrv0541 04051115152D          

  1  0  0  0  0  0            999 V2000
    0.0000    0.0000    0.0000 Li  0  3  0  0  0  0  0  0  0  0  0  0
M  CHG  1   1   1
M  END
> <chembl_id>
CHEMBL1234004

$$$$
CHEMBL1236802
  SciTegic12091219272D

  1  0  0  0  0  0            999 V2000
    2.1792    0.8125    0.0000 Xe  0  0
M  END
> <chembl_id>
CHEMBL1236802

$$$$
CHEMBL1689064
  SciTegic06011109532D

  1  0  0  0  0  0            999 V2000
   -1.9125  -10.0833    0.0000 O   0  4
M  RAD  1   1   2
M  END
> <chembl_id>
CHEMBL1689064

$$$$
CHEMBL2146121
  SciTegic12231509382D

  1  0  0  0  0  0            999 V2000
    5.6250   -4.4196    0.0000 Ca  0  0
M  END
> <chembl_id>
CHEMBL2146121

$$$$
CHEMBL2146125
  SciTegic12231509382D

  1  0  0  0  0  0            999 V2000
    5.3036   -4.8750    0.0000 Mg  0  0
M  END
> <chembl_id>
CHEMBL2146125

$$$$
CHEMBL2146126
  SciTegic12231509382D

  1  0  0  0  0  0            999 V2000
    7.7411   -5.3571    0.0000 Li  0  0
M  END
> <chembl_id>
CHEMBL2146126

$$$$
CHEMBL2106049
  SciTegic11301210262D

  1  0  0  0  0  0            999 V2000
   -0.3958   -0.0542    0.0000 C   0  0  0  0  0 15
M  END
> <chembl_id>
CHEMBL2106049

$$$$
CHEMBL2105487
  SciTegic11141416502D

  1  0  0  0  0  0            999 V2000
    0.0000    0.0000    0.0000 S   0  0  0  0  0 15
M  END
> <chembl_id>
CHEMBL2105487

$$$$
CHEMBL2110786
  SciTegic12231509382D

  1  0  0  0  0  0            999 V2000
    1.3375   -7.5625    0.0000 Sr  0  0
M  END
> <chembl_id>
CHEMBL2110786

$$$$
CHEMBL2106489
  SciTegic11301210262D

  1  0  0  0  0  0            999 V2000
   -1.0208   -7.6750    0.0000 O   0  0
M  ISO  1   1  15
M  END
> <chembl_id>
CHEMBL2106489

$$$$
CHEMBL2106034
  SciTegic11301210262D

  1  0  0  0  0  0            999 V2000
    1.3375   -7.5625    0.0000 Sr  0  0
M  ISO  1   1  85
M  END
> <chembl_id>
CHEMBL2106034

$$$$
CHEMBL2227836
  SciTegic05071316162D

  1  0  0  0  0  0            999 V2000
    3.6443   -2.8891    0.0000 P   0  0
M  END
> <chembl_id>
CHEMBL2227836

$$$$
CHEMBL14688
  Mrv0541 04051115152D          

  2  1  0  0  0  0            999 V2000
    0.4235    0.0150    0.0000 O   0  0  0  0  0  0  0  0  0  0  0  0
   -0.4015    0.0150    0.0000 C   0  0  0  0  0  0  0  0  0  0  0  0
  2  1  1  0  0  0  0
M  END
> <chembl_id>
CHEMBL14688

$$$$
CHEMBL43280
  Mrv0541 04051115152D          

  2  1  0  0  0  0            999 V2000
    0.4125   -0.0179    0.0000 N   0  0  0  0  0  0  0  0  0  0  0  0
   -0.4125   -0.0179    0.0000 C   0  0  0  0  0  0  0  0  0  0  0  0
  2  1  1  0  0  0  0
M  END
> <chembl_id>
CHEMBL43280

$$$$
CHEMBL48339
  Mrv0541 04051115152D          

  2  1  0  0  0  0            999 V2000
   -0.2451    0.5598    0.0000 C   0  0  0  0  0  0  0  0  0  0  0  0
   -1.0701    0.5598    0.0000 Br  0  0  0  0  0  0  0  0  0  0  0  0
  2  1  1  0  0  0  0
M  END
> <chembl_id>
CHEMBL48339

$$$$
CHEMBL69710
  SciTegic12231509382D

  2  0  0  0  0  0            999 V2000
    2.5167   -2.2125    0.0000 Cl  0  5
    1.5167   -2.0250    0.0000 Li  0  3
M  CHG  2   1  -1   2   1
M  END
> <chembl_id>
CHEMBL69710

$$$$
CHEMBL71595
  Mrv0541 04051115152D          

  2  1  0  0  0  0            999 V2000
    0.4125    0.0000    0.0000 O   0  0  0  0  0  0  0  0  0  0  0  0
   -0.4125    0.0000    0.0000 O   0  0  0  0  0  0  0  0  0  0  0  0
  1  2  1  0  0  0  0
M  END
> <chembl_id>
CHEMBL71595

$$$$
CHEMBL1237174
  SciTegic01111613442D

  2  1  0  0  0  0            999 V2000
    0.2606    0.1503    0.0000 N   0  0
    1.3000    0.7500    0.0000 N   0  0
  1  2  1  0
M  END
> <chembl_id>
CHEMBL1237174

$$$$
CHEMBL1141
  SciTegic12231509382D

  2  0  0  0  0  0            999 V2000
    3.3042   -5.7417    0.0000 I   0  5
    2.2417   -5.7792    0.0000 K   0  3
M  CHG  2   1  -1   2   1
M  END
> <chembl_id>
CHEMBL1141

$$$$
CHEMBL116336
  Mrv0541 04051115152D          

  2  1  0  0  0  0            999 V2000
    0.4125    0.0000    0.0000 C   0  0  0  0  0  0  0  0  0  0  0  0
   -0.4125    0.0000    0.0000 C   0  0  0  0  0  0  0  0  0  0  0  0
  1  2  3  0  0  0  0
M  END
> <chembl_id>
CHEMBL116336

$$$$
CHEMBL115849
          11280715212D 1   1.00000     0.00000     0

  2  1  0     0  0            999 V2000
    6.6875   -6.2667    0.0000 I   0  0  0  0  0  0           0  0  0
    5.9750   -6.6792    0.0000 C   0  0  0  0  0  0           0  0  0
  2  1  1  0     0  0
M  END
> <chembl_id>
CHEMBL115849

$$$$
CHEMBL117545
          11280715212D 1   1.00000     0.00000     0

  2  1  0     0  0            999 V2000
    2.6417   -1.6125    0.0000 Cl  0  0  0  0  0  0           0  0  0
    1.9292   -2.0250    0.0000 C   0  0  0  0  0  0           0  0  0
  2  1  1  0     0  0
M  END
> <chembl_id>
CHEMBL117545

$$$$
CHEMBL117822
          11280715212D 1   1.00000     0.00000     0

  2  1  0     0  0            999 V2000
   -1.5708   -0.3667    0.0000 C   0  0  0  0  0  0           0  0  0
   -0.8583    0.0458    0.0000 C   0  0  0  0  0  0           0  0  0
  2  1  2  0     0  0
M  END
> <chembl_id>
CHEMBL117822

$$$$
CHEMBL116838
          11280715212D 1   1.00000     0.00000     0

  2  1  0     0  0            999 V2000
    6.3292   -6.2667    0.0000 F   0  0  0  0  0  0           0  0  0
    5.6167   -6.6792    0.0000 C   0  0  0  0  0  0           0  0  0
  2  1  1  0     0  0
M  END
> <chembl_id>
CHEMBL116838

$$$$
CHEMBL135626
  Mrv0541 04051115152D          

  2  1  0  0  0  0            999 V2000
    0.4125    0.0000    0.0000 C   0  0  0  0  0  0  0  0  0  0  0  0
   -0.4125    0.0000    0.0000 C   0  0  0  0  0  0  0  0  0  0  0  0
  1  2  1  0  0  0  0
M  END
> <chembl_id>
CHEMBL135626

$$$$
CHEMBL142438
  Mrv0541 04051115152D          

  2  1  0  0  0  0            999 V2000
    0.4125    0.0000    0.0000 N   0  0  0  0  0  0  0  0  0  0  0  0
   -0.4125    0.0000    0.0000 N   0  0  0  0  0  0  0  0  0  0  0  0
  1  2  3  0  0  0  0
M  END
> <chembl_id>
CHEMBL142438

$$$$
CHEMBL1255
  Mrv0541 04051115152D          

  2  1  0  0  0  0            999 V2000
    0.4144    0.0000    0.0000 C   0  0  0  0  0  0  0  0  0  0  0  0
   -0.4106    0.0000    0.0000 O   0  0  0  0  0  0  0  0  0  0  0  0
  1  2  2  0  0  0  0
M  END
> <chembl_id>
CHEMBL1255

$$$$
CHEMBL2110557
  SciTegic12231509382D

  2  0  0  0  0  0            999 V2000
   -1.1708   -2.2000    0.0000 Cl  0  5
   -2.1583   -2.2167    0.0000 Rb  0  3
M  CHG  2   1  -1   2   1
M  END
> <chembl_id>
CHEMBL2110557

$$$$
CHEMBL183419
  SciTegic12231509382D

  2  1  0  0  0  0            999 V2000
    1.7280   -1.7100    0.0000 N   0  0
    1.3358   -1.0224    0.0000 C   0  0
  1  2  3  0
M  END
> <chembl_id>
CHEMBL183419

$$$$
CHEMBL1528
  SciTegic12231509382D

  2  0  0  0  0  0            999 V2000
    0.5875   -1.1542    0.0000 F   0  5
   -0.5708   -1.1542    0.0000 Na  0  3
M  CHG  2   1  -1   2   1
M  END
> <chembl_id>
CHEMBL1528

$$$$
CHEMBL1191361
  SciTegic12231509382D

  2  1  0  0  0  0            999 V2000
    0.0209   -1.3660    0.0000 O   0  0
    0.8459   -1.3660    0.0000 N   0  0
  1  2  1  0
M  END
> <chembl_id>
CHEMBL1191361

$$$$
CHEMBL1201225
  SciTegic01161211252D

  2  1  0  0  0  0            999 V2000
    4.5083   -4.9167    0.0000 I   0  0
    5.2167   -4.9167    0.0000 I   0  0
  1  2  1  0
M  END
> <chembl_id>
CHEMBL1201225

$$$$
CHEMBL1200574
  SciTegic12231509382D

  2  0  0  0  0  0            999 V2000
    3.0875   -2.5292    0.0000 Cl  0  5
    1.8375   -2.5000    0.0000 Na  0  3
M  CHG  2   1  -1   2   1
M  END
> <chembl_id>
CHEMBL1200574

$$$$
CHEMBL1201083
  SciTegic01161211252D

  2  0  0  0  0  0            999 V2000
    0.5875   -1.1542    0.0000 I   0  5
   -0.5708   -1.1542    0.0000 Na  0  3
M  CHG  2   1  -1   2   1
M  ISO  1   1 123
M  END
> <chembl_id>
CHEMBL1201083

$$$$
CHEMBL1201084
  SciTegic01161211252D

  2  0  0  0  0  0            999 V2000
    0.5875   -1.1542    0.0000 I   0  5
   -0.5708   -1.1542    0.0000 Na  0  3
M  CHG  2   1  -1   2   1
M  ISO  1   1 131
M  END
> <chembl_id>
CHEMBL1201084

$$$$
CHEMBL1200689
  SciTegic03151118422D

  2  1  0  0  0  0            999 V2000
    1.0000    0.0000    0.0000 N   0  4
    0.0000    0.0000    0.0000 O   0  0
  1  2  2  0
M  RAD  1   1   2
M  END
> <chembl_id>
CHEMBL1200689

$$$$
CHEMBL1200572
  SciTegic12231509382D

  2  1  0  0  0  0            999 V2000
    4.8167   -4.8250    0.0000 Mg  0  0
    5.5292   -4.8250    0.0000 O   0  0
  2  1  2  0
M  END
> <chembl_id>
CHEMBL1200572

$$$$
CHEMBL1200727
  SciTegic01161211252D

  2  0  0  0  0  0            999 V2000
   -1.1708   -2.2000    0.0000 Cl  0  5
   -2.1583   -2.2167    0.0000 Rb  0  3
M  CHG  2   1  -1   2   1
M  ISO  1   2  82
M  END
> <chembl_id>
CHEMBL1200727

$$$$
CHEMBL1200731
  SciTegic12231509382D

  2  0  0  0  0  0            999 V2000
    0.3042   -7.5292    0.0000 Cl  0  5
   -0.4458   -7.5292    0.0000 K   0  3
M  CHG  2   1  -1   2   1
M  END
> <chembl_id>
CHEMBL1200731

$$$$
CHEMBL1200939
  SciTegic12231509382D

  2  0  0  0  0  0            999 V2000
    4.3042   -4.7875    0.0000 N   0  3
    5.2500   -4.8125    0.0000 Cl  0  5
M  CHG  2   1   1   2  -1
M  END
> <chembl_id>
CHEMBL1200939

$$$$
CHEMBL1200744
  SciTegic01161211252D

  2  0  0  0  0  0            999 V2000
    0.5875   -1.1542    0.0000 F   0  5
   -0.5708   -1.1542    0.0000 Na  0  3
M  CHG  2   1  -1   2   1
M  ISO  1   1  18
M  END
> <chembl_id>
CHEMBL1200744

$$$$
CHEMBL1231840
  SciTegic12231509382D

  2  1  0  0  0  0            999 V2000
    0.4144    0.0000    0.0000 C   0  5
   -0.4106    0.0000    0.0000 O   0  3
  1  2  3  0
M  CHG  2   1  -1   2   1
M  END
> <chembl_id>
CHEMBL1231840

$$$$
CHEMBL1234886
  Mrv0541 04051115152D          

  2  1  0  0  0  0            999 V2000
    0.4125    0.0000    0.0000 O   0  0  0  0  0  0  0  0  0  0  0  0
   -0.4125    0.0000    0.0000 O   0  0  0  0  0  0  0  0  0  0  0  0
  1  2  2  0  0  0  0
M  END
> <chembl_id>
CHEMBL1234886

$$$$
CHEMBL1644027
  SciTegic12231509382D

  2  0  0  0  0  0            999 V2000
   15.5958   -2.0292    0.0000 K   0  3
   16.4417   -1.8708    0.0000 F   0  5
M  CHG  2   1   1   2  -1
M  END
> <chembl_id>
CHEMBL1644027

$$$$
CHEMBL1644695
  SciTegic12231509382D

  2  0  0  0  0  0            999 V2000
   -0.6958   -0.6875    0.0000 I   0  5
   -2.1333   -0.6875    0.0000 Na  0  3
M  CHG  2   1  -1   2   1
M  END
> <chembl_id>
CHEMBL1644695

$$$$
CHEMBL1644030
  SciTegic12231509382D

  2  0  0  0  0  0            999 V2000
    6.6417   -2.1208    0.0000 K   0  3
    7.3583   -1.9958    0.0000 Br  0  5
M  CHG  2   1   1   2  -1
M  END
> <chembl_id>
CHEMBL1644030

$$$$
CHEMBL1644694
  SciTegic12231509382D

  2  0  0  0  0  0            999 V2000
    6.1417    2.1875    0.0000 Br  0  5
    6.9563    2.1875    0.0000 Na  0  3
M  CHG  2   1  -1   2   1
M  END
> <chembl_id>
CHEMBL1644694

$$$$
CHEMBL1644699
  SciTegic04151115542D

  2  0  0  0  0  0            999 V2000
   13.0092   -4.9004    0.0000 S   0  5
   14.0052   -4.9337    0.0000 Na  0  3
M  CHG  2   1  -1   2   1
M  END
> <chembl_id>
CHEMBL1644699

$$$$
CHEMBL1616046
  SciTegic12231509382D

  2  1  0  0  0  0            999 V2000
    5.9102  -17.1363    0.0000 O   0  0
    6.7274  -17.1363    0.0000 Cl  0  0
  1  2  1  0
M  END
> <chembl_id>
CHEMBL1616046

$$$$
CHEMBL1909057
  SciTegic03221211162D

  2  0  0  0  0  0            999 V2000
   -4.3313    3.2705    0.0000 Cu  0  2
   -2.9759    2.8286    0.0000 O   0  6
M  CHG  2   1   2   2  -2
M  END
> <chembl_id>
CHEMBL1909057

$$$$
CHEMBL2104397
  SciTegic12231509382D

  2  1  0  0  0  0            999 V2000
   -1.2250    0.9583    0.0000 Ca  0  0
   -2.2875    1.9208    0.0000 O   0  0
  2  1  2  0
M  END
> <chembl_id>
CHEMBL2104397

$$$$
CHEMBL2105895
  SciTegic11301210262D

  2  0  0  0  0  0            999 V2000
    0.3042   -7.5292    0.0000 Cl  0  5
   -0.4458   -7.5292    0.0000 K   0  3
M  CHG  2   1  -1   2   1
M  ISO  1   2  42
M  END
> <chembl_id>
CHEMBL2105895

$$$$
CHEMBL2103983
  SciTegic12231509382D

  2  0  0  0  0  0            999 V2000
    0.4917   -8.4375    0.0000 O   0  5
   -0.2833   -8.4375    0.0000 K   0  3
M  CHG  2   1  -1   2   1
M  END
> <chembl_id>
CHEMBL2103983

$$$$
CHEMBL2105794
  SciTegic12231509382D

  2  0  0  0  0  0            999 V2000
    0.6125   -0.0625    0.0000 O   0  5
   -0.8208   -0.0542    0.0000 Na  0  3
M  CHG  2   1  -1   2   1
M  END
> <chembl_id>
CHEMBL2105794

$$$$
CHEMBL2103896
  SciTegic11301210262D

  2  0  0  0  0  0            999 V2000
    3.0875   -2.5292    0.0000 Cl  0  5
    1.8375   -2.5000    0.0000 Na  0  3
M  CHG  2   1  -1   2   1
M  ISO  1   2  22
M  END
> <chembl_id>
CHEMBL2103896

$$$$
CHEMBL2105877
  SciTegic11301210262D

  2  0  0  0  0  0            999 V2000
   -0.6958   -0.6875    0.0000 I   0  5
   -2.1333   -0.6875    0.0000 Na  0  3
M  CHG  2   1  -1   2   1
M  ISO  1   1 125
M  END
> <chembl_id>
CHEMBL2105877

$$$$
CHEMBL2364719
  SciTegic07301317192D

  2  1  0  0  0  0            999 V2000
    0.4144    0.0000    0.0000 C   0  5
   -0.4106    0.0000    0.0000 O   0  3
  1  2  3  0
M  CHG  2   1  -1   2   1
M  ISO  1   1  11
M  END
> <chembl_id>
CHEMBL2364719

$$$$
CHEMBL2272784
  SciTegic12231509382D

  2  0  0  0  0  0            999 V2000
   17.5526   -8.1477    0.0000 Al  0  1
   18.3776   -8.1477    0.0000 P   0  7
M  CHG  2   1   3   2  -3
M  END
> <chembl_id>
CHEMBL2272784

$$$$
CHEMBL2447909
  SciTegic01021412082D

  2  0  0  0  0  0            999 V2000
   -0.1202   -0.1503    0.0000 Fe  0  0
    1.0218   -0.2104    0.0000 As  0  0
M  END
> <chembl_id>
CHEMBL2447909

$$$$
CHEMBL3184414
  SciTegic11251413152D

  2  1  0  0  0  0            999 V2000
    0.8250    0.0000    0.0000 I   0  0
    0.0000    0.0000    0.0000 Cu  0  0
  1  2  1  0
M  END
> <chembl_id>
CHEMBL3184414

$$$$
CHEMBL3707217
  SciTegic05201615392D

  2  0  0  0  0  0            999 V2000
    3.8893   -6.0696    0.0000 Na  0  3
    5.1563   -6.3054    0.0000 I   0  5
M  CHG  2   1   1   2  -1
M  ISO  1   2 124
M  END
> <chembl_id>
CHEMBL3707217

$$$$
CHEMBL3988900
  Mrv1712 12011714402D          

  2  0  0  0  0  0            999 V2000
   -2.7271   -0.6891    0.0000 Zn  0  2  0  0  0  0  0  0  0  0  0  0
   -1.9021   -0.6891    0.0000 O   0  6  0  0  0  0  0  0  0  0  0  0
M  CHG  2   1   2   2  -2
M  END
> <chembl_id>
CHEMBL3988900

$$$$
CHEMBL9240
  SciTegic12231509382D

  4  3  0  0  0  0            999 V2000
    7.3292   -5.6125    0.0000 C   0  0
    6.6125   -6.0250    0.0000 N   0  0
    5.9000   -5.6125    0.0000 C   0  0
    5.9000   -4.7875    0.0000 O   0  0
  2  1  1  0
  3  2  1  0
  4  3  2  0
M  END
> <chembl_id>
CHEMBL9240

$$$$
CHEMBL504
  SciTegic06141115222D

  4  3  0  0  0  0            999 V2000
    4.4156   -2.9854    0.0000 S   0  3
    4.4130   -2.1557    0.0000 O   0  5
    5.1355   -3.3980    0.0000 C   0  0
    3.6983   -3.4026    0.0000 C   0  0
  2  1  1  0
  3  1  1  0
  4  1  1  0
M  CHG  2   1   1   2  -1
M  END
> <chembl_id>
CHEMBL504

$$$$
CHEMBL539
  SciTegic01311418072D

  4  3  0  0  0  0            999 V2000
    6.0167   -8.2292    0.0000 C   0  0
    5.4042   -7.8625    0.0000 O   0  0
    6.0000   -8.9417    0.0000 O   0  0
    6.6375   -7.8875    0.0000 C   0  0
  2  1  1  0
  3  1  2  0
  4  1  1  0
M  END
> <chembl_id>
CHEMBL539

$$$$
CHEMBL14253
  Mrv0541 04051115152D          

  4  3  0  0  0  0            999 V2000
    0.0007   -0.0000    0.0000 C   0  0  0  0  0  0  0  0  0  0  0  0
    0.4132    0.7145    0.0000 O   0  0  0  0  0  0  0  0  0  0  0  0
    0.4132   -0.7145    0.0000 C   0  0  0  0  0  0  0  0  0  0  0  0
   -0.8243   -0.0000    0.0000 C   0  0  0  0  0  0  0  0  0  0  0  0
  1  2  2  0  0  0  0
  1  3  1  0  0  0  0
  1  4  1  0  0  0  0
M  END
> <chembl_id>
CHEMBL14253

$$$$
CHEMBL14409
  SciTegic12231509382D

  4  3  0  0  0  0            999 V2000
    2.1779   -0.6111    0.0000 N   0  0
    1.4243   -0.9465    0.0000 C   0  0
    0.7535   -0.4686    0.0000 C   0  0
    0.0000   -0.8087    0.0000 C   0  0
  1  2  1  0
  2  3  1  0
  3  4  1  0
M  END
> <chembl_id>
CHEMBL14409

$$$$
CHEMBL14687
  SciTegic05201615392D

  4  3  0  0  0  0            999 V2000
    1.0394   -0.3572    0.0000 O   0  0
    0.2144   -0.3572    0.0000 C   0  0
   -0.1981    0.3572    0.0000 C   0  0
   -1.0231    0.3572    0.0000 C   0  0
  2  1  1  0
  2  3  1  0
  3  4  1  0
M  END
> <chembl_id>
CHEMBL14687

$$$$
CHEMBL15871
          11280714462D 1   1.00000     0.00000     0

  4  3  0     0  0            999 V2000
    3.8167   -2.9917    0.0000 N   0  0  0  0  0  0           0  0  0
    4.6417   -2.9875    0.0000 C   0  0  0  0  0  0           0  0  0
    5.4750   -2.9792    0.0000 C   0  0  0  0  0  0           0  0  0
    5.8917   -3.6917    0.0000 C   0  0  0  0  0  0           0  0  0
  2  1  3  0     0  0
  3  2  1  0     0  0
  4  3  1  0     0  0
M  END
> <chembl_id>
CHEMBL15871

$$$$
CHEMBL16081
  Mrv0541 04051115152D          

  4  3  0  0  0  0            999 V2000
    0.0071   -0.0000    0.0000 C   0  0  0  0  0  0  0  0  0  0  0  0
    0.4196    0.7145    0.0000 O   0  0  0  0  0  0  0  0  0  0  0  0
    0.4196   -0.7145    0.0000 N   0  0  0  0  0  0  0  0  0  0  0  0
   -0.8179   -0.0000    0.0000 C   0  0  0  0  0  0  0  0  0  0  0  0
  1  2  2  0  0  0  0
  1  3  1  0  0  0  0
  1  4  1  0  0  0  0
M  END
> <chembl_id>
CHEMBL16081

$$$$
CHEMBL16370
  Mrv0541 04051115152D          

  4  3  0  0  0  0            999 V2000
    1.0312   -0.3572    0.0000 Cl  0  0  0  0  0  0  0  0  0  0  0  0
    0.2062   -0.3572    0.0000 C   0  0  0  0  0  0  0  0  0  0  0  0
   -0.2062    0.3572    0.0000 C   0  0  0  0  0  0  0  0  0  0  0  0
   -1.0312    0.3572    0.0000 Cl  0  0  0  0  0  0  0  0  0  0  0  0
  2  1  1  0  0  0  0
  2  3  1  0  0  0  0
  3  4  1  0  0  0  0
M  END
> <chembl_id>
CHEMBL16370

$$$$
CHEMBL602
  SciTegic12231509382D

  4  3  0  0  0  0            999 V2000
    6.9674  -10.7655    0.0000 S   0  0
    4.8320  -10.3502    0.0000 N   0  0
    6.2572  -10.3501    0.0000 C   0  0
    5.5422  -10.7656    0.0000 C   0  0
  2  4  1  0
  3  1  1  0
  4  3  1  0
M  END
> <chembl_id>
CHEMBL602

$$$$
CHEMBL722
          11280714502D 1   1.00000     0.00000     0

  4  3  0     0  0            999 V2000
   -0.2208   -4.3750    0.0000 C   0  0  0  0  0  0           0  0  0
   -0.8208   -4.3750    0.0000 C   0  0  0  0  0  0           0  0  0
    0.3792   -4.3750    0.0000 C   0  0  0  0  0  0           0  0  0
    0.6792   -3.8542    0.0000 O   0  0  0  0  0  0           0  0  0
  2  1  3  0     0  0
  3  1  1  0     0  0
  4  3  2  0     0  0
M  END
> <chembl_id>
CHEMBL722

$$$$
CHEMBL721
  SciTegic01111613442D

  4  3  0  0  0  0            999 V2000
    0.2606    0.1503    0.0000 C   0  0
    1.3000    0.7500    0.0000 C   0  0
    2.6000    0.0000    0.0000 C   0  0
    3.6394    0.5997    0.0000 O   0  0
  2  3  1  0
  1  2  2  0
  3  4  2  0
M  END
> <chembl_id>
CHEMBL721

$$$$
CHEMBL816
  CDK    6/4/10,11:41

  4  3  0  0  0  0  0  0  0  0999 V2000
   -2.6939  -22.4417    0.0000 C   0  0  0  0  0  0  0  0  0  0  0  0
   -1.9794  -22.8542    0.0000 C   0  0  0  0  0  0  0  0  0  0  0  0
   -1.2649  -22.4417    0.0000 N   0  0  0  0  0  0  0  0  0  0  0  0
   -3.4083  -22.8542    0.0000 N   0  0  0  0  0  0  0  0  0  0  0  0
  2  3  1  0  0  0  0 
  1  2  1  0  0  0  0 
  1  4  1  0  0  0  0 
M  END
> <chembl_id>
CHEMBL816

$$$$
CHEMBL38737
          11280714542D 1   1.00000     0.00000     0

  4  3  0     0  0            999 V2000
   -1.8250    0.2250    0.0000 C   0  0  0  0  0  0           0  0  0
   -1.7833    0.8250    0.0000 S   0  0  0  0  0  0           0  0  0
   -2.3708   -0.0292    0.0000 N   0  0  0  0  0  0           0  0  0
   -1.3333   -0.1167    0.0000 C   0  0  0  0  0  0           0  0  0
  2  1  1  0     0  0
  3  1  2  0     0  0
  4  1  1  0     0  0
M  END
> <chembl_id>
CHEMBL38737

$$$$
CHEMBL821
  SciTegic12231509382D

  4  3  0  0  0  0            999 V2000
    0.6971    0.0000    0.0000 N   0  0
    1.4263   -1.2179    0.0000 N   0  0
    0.0000   -1.2420    0.0000 N   0  0
    0.6971   -0.8093    0.0000 C   0  0
  1  4  2  0
  2  4  1  0
  3  4  1  0
M  END
> <chembl_id>
CHEMBL821

$$$$
CHEMBL42403


  4  3  0  0  0  0            999 V2000
    0.2250   -0.1167    0.0000 B   0  0
    0.6375    1.2708    0.0000 O   0  0
   -1.1333   -0.4542    0.0000 O   0  0
    1.2417   -1.1375    0.0000 O   0  0
  2  1  1  0
  3  1  1  0
  4  1  1  0
M  END
> <chembl_id>
CHEMBL42403

$$$$
CHEMBL45079
          11280714572D 1   1.00000     0.00000     0

  4  3  0     0  0            999 V2000
   -2.3125    0.6583    0.0000 C   0  0  3  0  0  0           0  0  0
   -2.8333    0.3583    0.0000 Cl  0  0  0  0  0  0           0  0  0
   -1.7958    0.3583    0.0000 Cl  0  0  0  0  0  0           0  0  0
   -2.3125    1.2583    0.0000 C   0  0  0  0  0  0           0  0  0
  2  1  1  0     0  0
  3  1  1  0     0  0
  4  1  1  0     0  0
M  END
> <chembl_id>
CHEMBL45079

$$$$
CHEMBL44618
  Mrv0541 04051115152D          

  4  3  0  0  0  0            999 V2000
    0.0000   -0.0001    0.0000 C   0  0  0  0  0  0  0  0  0  0  0  0
    0.4125    0.7143    0.0000 Cl  0  0  0  0  0  0  0  0  0  0  0  0
    0.4125   -0.7146    0.0000 Cl  0  0  0  0  0  0  0  0  0  0  0  0
   -0.8250   -0.0001    0.0000 Cl  0  0  0  0  0  0  0  0  0  0  0  0
  1  4  1  0  0  0  0
  1  3  1  0  0  0  0
  1  2  1  0  0  0  0
M  END
> <chembl_id>
CHEMBL44618

$$$$
CHEMBL57286
  Mrv0541 04051115152D          

  4  3  0  0  0  0            999 V2000
    0.1696   -0.3598    0.0000 C   0  0  0  0  0  0  0  0  0  0  0  0
    0.9946   -0.3598    0.0000 C   0  0  0  0  0  0  0  0  0  0  0  0
   -0.2429    0.3547    0.0000 C   0  0  0  0  0  0  0  0  0  0  0  0
   -1.0679    0.3547    0.0000 N   0  0  0  0  0  0  0  0  0  0  0  0
  1  2  2  0  0  0  0
  3  1  1  0  0  0  0
  3  4  1  0  0  0  0
M  END
> <chembl_id>
CHEMBL57286

$$$$
CHEMBL985
  SciTegic12231509382D

  4  3  0  0  0  0            999 V2000
    1.2374   -1.4291    0.0000 O   0  0
    1.2374    0.0000    0.0000 N   0  0
    0.0000   -0.7145    0.0000 N   0  0
    0.8249   -0.7145    0.0000 C   0  0
  1  4  2  0
  2  4  1  0
  3  4  1  0
M  END
> <chembl_id>
CHEMBL985

$$$$
CHEMBL86473
  SciTegic12231509382D

  4  3  0  0  0  0            999 V2000
    0.0000    0.0000    0.0000 V   0  0
    0.4125    0.7145    0.0000 O   0  0
    0.4125   -0.7145    0.0000 O   0  0
   -0.8250    0.0000    0.0000 O   0  0
  2  1  2  0
  3  1  1  0
  4  1  2  0
M  END
> <chembl_id>
CHEMBL86473

$$$$
CHEMBL89295
  SciTegic01161211212D

  4  2  0  0  0  0            999 V2000
    0.0000    0.4125    0.0000 Na  0  3
   -0.8250   -0.4125    0.0000 N   0  5
    0.0000   -0.4125    0.0000 N   0  3
    0.8250   -0.4125    0.0000 N   0  5
  2  3  2  0
  3  4  2  0
M  CHG  4   1   1   2  -1   3   1   4  -1
M  END
> <chembl_id>
CHEMBL89295

$$$$
CHEMBL93268
  -ISIS-  03291115432D

  4  2  0  0  0  0  0  0  0  0999 V2000
    2.8000   -3.6625    0.0000 N   0  0  0  0  0  0  0  0  0  0  0  0
    3.2125   -2.9500    0.0000 O   0  5  0  0  0  0  0  0  0  0  0  0
    1.9750   -3.6625    0.0000 O   0  0  0  0  0  0  0  0  0  0  0  0
    4.8875   -3.6000    0.0000 Na  0  3  0  0  0  0  0  0  0  0  0  0
  2  1  1  0  0  0  0
  3  1  2  0  0  0  0
M  CHG  2   2  -1   4   1
M  END
> <chembl_id>
CHEMBL93268

$$$$
CHEMBL3707285
  SciTegic05201615392D

  4  0  0  0  0  0            999 V2000
    0.7661    0.3830    0.0000 Fe  0  1
   -0.3830   -0.9723    0.0000 O   0  5
    2.1214   -0.6482    0.0000 O   0  5
    3.0643    0.2357    0.0000 O   0  5
M  CHG  4   1   3   2  -1   3  -1   4  -1
M  END
> <chembl_id>
CHEMBL3707285

$$$$
CHEMBL104943
  Mrv0541 04051115152D          

  4  3  0  0  0  0            999 V2000
    0.1898   -0.3523    0.0000 C   0  0  0  0  0  0  0  0  0  0  0  0
    1.0148   -0.3523    0.0000 N   0  0  0  0  0  0  0  0  0  0  0  0
   -0.2227    0.3622    0.0000 C   0  0  0  0  0  0  0  0  0  0  0  0
   -1.0477    0.3622    0.0000 O   0  0  0  0  0  0  0  0  0  0  0  0
  1  2  1  0  0  0  0
  1  3  1  0  0  0  0
  3  4  1  0  0  0  0
M  END
> <chembl_id>
CHEMBL104943

$$$$
CHEMBL1237171
  SciTegic12231509382D

  4  3  0  0  0  0            999 V2000
    1.9000   -2.2792    0.0000 S   0  3
    1.3167   -2.1167    0.0000 C   0  0
    2.0542   -2.8542    0.0000 C   0  0
    1.3792   -2.5792    0.0000 C   0  0
  2  1  1  0
  3  1  1  0
  4  1  1  0
M  CHG  1   1   1
M  END
> <chembl_id>
CHEMBL1237171

$$$$
CHEMBL116155
          11280715222D 1   1.00000     0.00000     0

  4  3  0     0  0            999 V2000
    3.5500   -2.9917    0.0000 C   0  0  3  0  0  0           0  0  0
    4.2625   -2.5792    0.0000 Cl  0  0  0  0  0  0           0  0  0
    2.8292   -2.5792    0.0000 F   0  0  0  0  0  0           0  0  0
    3.5500   -3.8167    0.0000 F   0  0  0  0  0  0           0  0  0
  2  1  1  0     0  0
  3  1  1  0     0  0
  4  1  1  0     0  0
M  END
> <chembl_id>
CHEMBL116155

$$$$
CHEMBL115586
          11280715222D 1   1.00000     0.00000     0

  4  3  0     0  0            999 V2000
    1.9417    0.1583    0.0000 F   0  0  0  0  0  0           0  0  0
    0.5167   -1.4917    0.0000 O   0  0  0  0  0  0           0  0  0
    1.2292   -0.2542    0.0000 C   0  0  0  0  0  0           0  0  0
    1.2292   -1.0792    0.0000 C   0  0  0  0  0  0           0  0  0
  2  4  1  0     0  0
  3  1  1  0     0  0
  4  3  1  0     0  0
M  END
> <chembl_id>
CHEMBL115586

$$$$
CHEMBL116020
          11280715212D 1   1.00000     0.00000     0

  4  3  0     0  0            999 V2000
   -1.4125   -2.5542    0.0000 C   0  0  0  0  0  0           0  0  0
   -1.4125   -3.3792    0.0000 C   0  0  0  0  0  0           0  0  0
   -2.1333   -2.1417    0.0000 F   0  0  0  0  0  0           0  0  0
   -0.7000   -2.1417    0.0000 F   0  0  0  0  0  0           0  0  0
  2  1  2  0     0  0
  3  1  1  0     0  0
  4  1  1  0     0  0
M  END
> <chembl_id>
CHEMBL116020

$$$$
CHEMBL117080
          11280715212D 1   1.00000     0.00000     0

  4  3  0     0  0            999 V2000
   -0.2250   -1.7000    0.0000 N   0  0  0  0  0  0           0  0  0
    0.4917   -1.2875    0.0000 C   0  0  3  0  0  0           0  0  0
    0.4917   -0.4625    0.0000 C   0  0  0  0  0  0           0  0  0
    1.2042   -1.7000    0.0000 C   0  0  0  0  0  0           0  0  0
  2  1  1  0     0  0
  3  2  1  0     0  0
  4  2  1  0     0  0
M  END
> <chembl_id>
CHEMBL117080

$$$$
CHEMBL117210
          11280715212D 1   1.00000     0.00000     0

  4  3  0     0  0            999 V2000
   -0.9500   -0.8292    0.0000 C   0  0  0  0  0  0           0  0  0
   -1.6625   -1.2417    0.0000 C   0  0  0  0  0  0           0  0  0
   -0.2375   -1.2417    0.0000 C   0  0  0  0  0  0           0  0  0
    0.4792   -0.8292    0.0000 C   0  0  0  0  0  0           0  0  0
  2  1  2  0     0  0
  3  1  1  0     0  0
  4  3  1  0     0  0
M  END
> <chembl_id>
CHEMBL117210

$$$$
CHEMBL116813
          11280715212D 1   1.00000     0.00000     0

  4  3  0     0  0            999 V2000
    3.5500   -2.9917    0.0000 C   0  0  3  0  0  0           0  0  0
    4.2625   -2.5792    0.0000 Cl  0  0  0  0  0  0           0  0  0
    2.8292   -2.5792    0.0000 Cl  0  0  0  0  0  0           0  0  0
    3.5500   -3.8167    0.0000 F   0  0  0  0  0  0           0  0  0
  2  1  1  0     0  0
  3  1  1  0     0  0
  4  1  1  0     0  0
M  END
> <chembl_id>
CHEMBL116813

$$$$
CHEMBL119108
  SciTegic10041313202D

  4  3  0  0  0  0            999 V2000
   -1.6083   -0.2667    0.0000 C   0  0
   -0.8958   -0.6792    0.0000 C   0  0
   -2.3208    0.1458    0.0000 C   0  0
   -0.1815   -1.0928    0.0000 C   0  0
  2  1  3  0
  3  1  1  0
  4  2  1  0
M  END
> <chembl_id>
CHEMBL119108

$$$$
CHEMBL125278
  Mrv0541 04051115152D          

  4  3  0  0  0  0            999 V2000
    0.4199    0.7145    0.0000 N   0  0  0  0  0  0  0  0  0  0  0  0
    0.0074   -0.0000    0.0000 C   0  0  0  0  0  0  0  0  0  0  0  0
    0.4199   -0.7145    0.0000 O   0  0  0  0  0  0  0  0  0  0  0  0
   -0.8176   -0.0000    0.0000 O   0  0  0  0  0  0  0  0  0  0  0  0
  2  1  1  0  0  0  0
  2  3  2  0  0  0  0
  2  4  1  0  0  0  0
M  END
> <chembl_id>
CHEMBL125278

$$$$
CHEMBL134702
  Mrv0541 04051115152D          

  4  3  0  0  0  0            999 V2000
    1.0312   -0.3572    0.0000 C   0  0  0  0  0  0  0  0  0  0  0  0
    0.2062   -0.3572    0.0000 C   0  0  0  0  0  0  0  0  0  0  0  0
   -0.2062    0.3572    0.0000 C   0  0  0  0  0  0  0  0  0  0  0  0
   -1.0312    0.3572    0.0000 C   0  0  0  0  0  0  0  0  0  0  0  0
  1  2  1  0  0  0  0
  2  3  1  0  0  0  0
  3  4  1  0  0  0  0
M  END
> <chembl_id>
CHEMBL134702

$$$$
CHEMBL156455
          11280715352D 1   1.00000     0.00000     0

  4  3  0     0  0            999 V2000
    0.3542   -1.3542    0.0000 C   0  0  0  0  0  0           0  0  0
   -0.2458   -1.3542    0.0000 C   0  0  0  0  0  0           0  0  0
    0.6542   -1.8750    0.0000 Cl  0  0  0  0  0  0           0  0  0
    0.6542   -0.8375    0.0000 Cl  0  0  0  0  0  0           0  0  0
  2  1  2  0     0  0
  3  1  1  0     0  0
  4  1  1  0     0  0
M  END
> <chembl_id>
CHEMBL156455

$$$$
CHEMBL157093
          11280715352D 1   1.00000     0.00000     0

  4  3  0     0  0            999 V2000
    2.8875   -3.9417    0.0000 C   0  0  3  0  0  0           0  0  0
    2.3667   -4.2417    0.0000 Br  0  0  0  0  0  0           0  0  0
    3.4042   -4.2417    0.0000 Br  0  0  0  0  0  0           0  0  0
    2.8875   -3.3417    0.0000 Cl  0  0  0  0  0  0           0  0  0
  2  1  1  0     0  0
  3  1  1  0     0  0
  4  1  1  0     0  0
M  END
> <chembl_id>
CHEMBL157093

$$$$
CHEMBL157026
          11280715352D 1   1.00000     0.00000     0

  4  3  0     0  0            999 V2000
   -0.2458   -1.3542    0.0000 C   0  0  0  0  0  0           0  0  0
    0.3542   -1.3542    0.0000 C   0  0  0  0  0  0           0  0  0
    0.6542   -1.8750    0.0000 Cl  0  0  0  0  0  0           0  0  0
   -0.5458   -0.8375    0.0000 Cl  0  0  0  0  0  0           0  0  0
  2  1  2  0     0  0
  3  2  1  0     0  0
  4  1  1  0     0  0
M  END
> <chembl_id>
CHEMBL157026

$$$$
CHEMBL160255
          11280715352D 1   1.00000     0.00000     0

  4  3  0     0  0            999 V2000
    3.4042   -4.2417    0.0000 Br  0  0  0  0  0  0           0  0  0
    1.8500   -3.9417    0.0000 Cl  0  0  0  0  0  0           0  0  0
    2.3667   -4.2417    0.0000 C   0  0  0  0  0  0           0  0  0
    2.8875   -3.9417    0.0000 C   0  0  0  0  0  0           0  0  0
  2  3  1  0     0  0
  3  4  1  0     0  0
  4  1  1  0     0  0
M  END
> <chembl_id>
CHEMBL160255

$$$$
CHEMBL162921
  SciTegic12231509382D

  4  3  0  0  0  0            999 V2000
    1.5469   -0.0994    0.0000 N   0  0
    1.1344    0.6150    0.0000 N   0  0
    2.3719   -0.0994    0.0000 C   0  0
    0.3094    0.6150    0.0000 C   0  0
  2  1  1  0
  3  1  1  0
  4  2  1  0
M  END
> <chembl_id>
CHEMBL162921

$$$$
CHEMBL183491
  SciTegic12231509382D

  4  2  0  0  0  0            999 V2000
    0.9507  -13.5097    0.0000 C   0  0
    0.9563  -12.6847    0.0000 O   0  0
    1.6617  -13.9282    0.0000 O   0  5
    2.7418  -14.1336    0.0000 Na  0  3
  1  2  2  0
  1  3  1  0
M  CHG  2   3  -1   4   1
M  END
> <chembl_id>
CHEMBL183491

$$$$
CHEMBL186200
  SciTegic01311418072D

  4  3  0  0  0  0            999 V2000
    8.9792   -5.3417    0.0000 N   0  3
    9.3917   -4.6292    0.0000 O   0  5
    8.1542   -5.3417    0.0000 O   0  5
    9.3917   -6.0625    0.0000 O   0  0
  2  1  1  0
  3  1  1  0
  4  1  2  0
M  CHG  3   1   1   2  -1   3  -1
M  END
> <chembl_id>
CHEMBL186200

$$$$
CHEMBL191244
  CDK    9/16/09,9:44

  4  3  0  0  0  0  0  0  0  0999 V2000
    9.2727   -9.7585    0.0000 C   0  0  0  0  0  0  0  0  0  0  0  0
    9.9875   -9.3466    0.0000 C   0  0  0  0  0  0  0  0  0  0  0  0
   10.7022   -9.7585    0.0000 Cl  0  0  0  0  0  0  0  0  0  0  0  0
    8.5621   -9.3466    0.0000 O   0  0  0  0  0  0  0  0  0  0  0  0
  1  2  1  0  0  0  0 
  2  3  1  0  0  0  0 
  1  4  1  0  0  0  0 
M  END
> <chembl_id>
CHEMBL191244

$$$$
CHEMBL234926
          02060813472D 1   1.00000     0.00000     0

  4  3  0     0  0            999 V2000
   -2.5552  -11.4060    0.0000 C   0  0  0  0  0  0           0  0  0
   -1.8469  -10.9831    0.0000 O   0  0  0  0  0  0           0  0  0
   -3.2847  -10.9694    0.0000 C   0  0  0  0  0  0           0  0  0
   -3.9664  -11.3788    0.0000 C   0  0  0  0  0  0           0  0  0
  1  2  1  0     0  0
  1  3  1  0     0  0
  3  4  2  0     0  0
M  END
> <chembl_id>
CHEMBL234926

$$$$
CHEMBL254951
  Mrv0541 04051115152D          

  4  3  0  0  0  0            999 V2000
    1.0133   -0.3572    0.0000 O   0  0  0  0  0  0  0  0  0  0  0  0
    0.1883   -0.3572    0.0000 C   0  0  0  0  0  0  0  0  0  0  0  0
   -0.2242    0.3572    0.0000 C   0  0  0  0  0  0  0  0  0  0  0  0
   -1.0492    0.3572    0.0000 S   0  0  0  0  0  0  0  0  0  0  0  0
  2  1  1  0  0  0  0
  3  2  1  0  0  0  0
  3  4  1  0  0  0  0
M  END
> <chembl_id>
CHEMBL254951

$$$$
CHEMBL257679
          08180812492D 1   1.00000     0.00000     0

  4  3  0     0  0            999 V2000
   -2.7542    0.8750    0.0000 B   0  0  0  0  0  0           0  0  0
   -2.0397    0.4625    0.0000 O   0  0  0  0  0  0           0  0  0
   -3.4686    0.4625    0.0000 O   0  0  0  0  0  0           0  0  0
   -2.7542    1.7000    0.0000 C   0  0  0  0  0  0           0  0  0
  1  3  1  0     0  0
  1  2  1  0     0  0
  1  4  1  0     0  0
M  END
> <chembl_id>
CHEMBL257679

$$$$
CHEMBL260876
  Mrv0541 04051115152D          

  4  3  0  0  0  0            999 V2000
    0.1784   -0.0000    0.0000 C   0  0  0  0  0  0  0  0  0  0  0  0
    0.5909    0.7145    0.0000 S   0  0  0  0  0  0  0  0  0  0  0  0
    0.5909   -0.7145    0.0000 N   0  0  0  0  0  0  0  0  0  0  0  0
   -0.6466   -0.0000    0.0000 N   0  0  0  0  0  0  0  0  0  0  0  0
  1  2  2  0  0  0  0
  1  3  1  0  0  0  0
  1  4  1  0  0  0  0
M  END
> <chembl_id>
CHEMBL260876

$$$$
CHEMBL275626
  Mrv0541 04051115152D          

  4  3  0  0  0  0            999 V2000
    0.2104   -0.3619    0.0000 C   0  0  0  0  0  0  0  0  0  0  0  0
    1.0354   -0.3619    0.0000 O   0  0  0  0  0  0  0  0  0  0  0  0
   -0.2021    0.3525    0.0000 C   0  0  0  0  0  0  0  0  0  0  0  0
   -1.0271    0.3525    0.0000 C   0  0  0  0  0  0  0  0  0  0  0  0
  1  2  2  0  0  0  0
  1  3  1  0  0  0  0
  3  4  1  0  0  0  0
M  END
> <chembl_id>
CHEMBL275626

$$$$
CHEMBL276924
  CDK    9/16/09,9:47

  4  3  0  0  0  0  0  0  0  0999 V2000
    8.9958  -19.6083    0.0000 N   0  0  0  0  0  0  0  0  0  0  0  0
    8.9917  -18.7833    0.0000 C   0  0  0  0  0  0  0  0  0  0  0  0
    9.7124  -20.0172    0.0000 O   0  0  0  0  0  0  0  0  0  0  0  0
    8.2835  -20.0244    0.0000 O   0  0  0  0  0  0  0  0  0  0  0  0
  1  2  1  0  0  0  0 
  1  3  2  0  0  0  0 
  1  4  1  0  0  0  0 
M  CHG  1   1   1
M  CHG  1   4  -1
M  END
> <chembl_id>
CHEMBL276924

$$$$
CHEMBL582
  Mrv0541 04051115152D          

  4  3  0  0  0  0            999 V2000
    0.4287    0.7265    0.0000 C   0  0  0  0  0  0  0  0  0  0  0  0
    0.0162    0.0121    0.0000 C   0  0  0  0  0  0  0  0  0  0  0  0
    0.4287   -0.7024    0.0000 C   0  0  0  0  0  0  0  0  0  0  0  0
   -0.8088    0.0121    0.0000 O   0  0  0  0  0  0  0  0  0  0  0  0
  1  2  1  0  0  0  0
  2  3  1  0  0  0  0
  2  4  1  0  0  0  0
M  END
> <chembl_id>
CHEMBL582

$$$$
CHEMBL295026
          11280714562D 1   1.00000     0.00000     0

  4  3  0     0  0            999 V2000
    8.1292   -1.8792    0.0000 C   0  0  0  0  0  0           0  0  0
    8.1292   -1.2792    0.0000 O   0  0  0  0  0  0           0  0  0
    8.6542   -2.1792    0.0000 O   0  0  0  0  0  0           0  0  0
    9.1750   -1.8792    0.0000 C   0  0  0  0  0  0           0  0  0
  2  1  2  0     0  0
  3  1  1  0     0  0
  4  3  1  0     0  0
M  END
> <chembl_id>
CHEMBL295026

$$$$
CHEMBL325493
          11280715212D 1   1.00000     0.00000     0

  4  3  0     0  0            999 V2000
   -0.6083   -1.8625    0.0000 C   0  0  3  0  0  0           0  0  0
    0.1042   -2.2750    0.0000 F   0  0  0  0  0  0           0  0  0
   -0.6083   -1.0375    0.0000 F   0  0  0  0  0  0           0  0  0
   -1.3208   -2.2750    0.0000 C   0  0  0  0  0  0           0  0  0
  2  1  1  0     0  0
  3  1  1  0     0  0
  4  1  1  0     0  0
M  END
> <chembl_id>
CHEMBL325493

$$$$
CHEMBL345248
  Mrv0541 04051115152D          

  4  3  0  0  0  0            999 V2000
   -0.0001    0.0674    0.0000 C   0  0  0  0  0  0  0  0  0  0  0  0
    0.4124    0.7818    0.0000 Br  0  0  0  0  0  0  0  0  0  0  0  0
    0.4124   -0.6471    0.0000 Br  0  0  0  0  0  0  0  0  0  0  0  0
   -0.8251    0.0674    0.0000 Br  0  0  0  0  0  0  0  0  0  0  0  0
  2  1  1  0  0  0  0
  3  1  1  0  0  0  0
  4  1  1  0  0  0  0
M  END
> <chembl_id>
CHEMBL345248

$$$$
CHEMBL346231
          11280715352D 1   1.00000     0.00000     0

  4  3  0     0  0            999 V2000
    2.8875   -3.9417    0.0000 C   0  0  3  0  0  0           0  0  0
    2.3667   -4.2417    0.0000 Br  0  0  0  0  0  0           0  0  0
    3.4042   -4.2417    0.0000 Cl  0  0  0  0  0  0           0  0  0
    2.8875   -3.3417    0.0000 Cl  0  0  0  0  0  0           0  0  0
  2  1  1  0     0  0
  3  1  1  0     0  0
  4  1  1  0     0  0
M  END
> <chembl_id>
CHEMBL346231

$$$$
CHEMBL1352
  CDK    7/28/10,10:58

  4  3  0  0  0  0  0  0  0  0999 V2000
    5.0375   -3.8542    0.0000 N   0  0  0  0  0  0  0  0  0  0  0  0
    4.3167   -3.4375    0.0000 O   0  0  0  0  0  0  0  0  0  0  0  0
    5.7500   -3.4375    0.0000 O   0  0  0  0  0  0  0  0  0  0  0  0
    5.0375   -4.6750    0.0000 O   0  0  0  0  0  0  0  0  0  0  0  0
  2  1  1  0  0  0  0 
  3  1  2  0  0  0  0 
  4  1  1  0  0  0  0 
M  CHG  1   1   1
M  CHG  1   2  -1
M  END
> <chembl_id>
CHEMBL1352

$$$$
CHEMBL396000
          02060813472D 1   1.00000     0.00000     0

  4  3  0     0  0            999 V2000
   14.0554  -13.0230    0.0000 C   0  0  0  0  0  0           0  0  0
   13.6429  -13.7371    0.0000 N   0  0  0  0  0  0           0  0  0
   12.8179  -13.7371    0.0000 C   0  0  0  0  0  0           0  0  0
   11.9929  -13.7371    0.0000 S   0  0  0  0  0  0           0  0  0
  2  3  2  0     0  0
  3  4  2  0     0  0
  1  2  1  0     0  0
M  END
> <chembl_id>
CHEMBL396000

$$$$
CHEMBL399906
          05080814042D 1   1.00000     0.00000     0

  4  3  0     0  0            999 V2000
   18.6083  -24.2593    0.0000 C   0  0  0  0  0  0           0  0  0
   19.3344  -23.8727    0.0000 Se  0  0  0  0  0  0           0  0  0
   19.3621  -23.0470    0.0000 O   0  0  0  0  0  0           0  0  0
   20.0350  -24.3084    0.0000 O   0  0  0  0  0  0           0  0  0
  2  3  2  0     0  0
  2  4  1  0     0  0
  1  2  1  0     0  0
M  END
> <chembl_id>
CHEMBL399906

$$$$
CHEMBL439723
  SciTegic12231509382D

  4  3  0  0  0  0            999 V2000
   16.4729   -3.9463    0.0000 N   0  0
   17.1873   -3.5338    0.0000 C   0  0
   15.7584   -3.5338    0.0000 C   0  0
   16.4729   -4.7714    0.0000 C   0  0
  1  3  1  0
  1  4  1  0
  1  2  1  0
M  END
> <chembl_id>
CHEMBL439723

$$$$
CHEMBL448089
  SciTegic01161211232D

  4  2  0  0  0  0            999 V2000
    6.2708   -7.0500    0.0000 C   0  0
    7.0958   -7.0500    0.0000 N   0  0
    5.4458   -7.0500    0.0000 Se  0  5
    5.3708   -8.7000    0.0000 Na  0  3
  2  1  3  0
  3  1  1  0
M  CHG  2   3  -1   4   1
M  END
> <chembl_id>
CHEMBL448089

$$$$
CHEMBL445612
          11280714592D 1   1.00000     0.00000     0

  4  3  0     0  0            999 V2000
    3.2542   -1.5500    0.0000 N   0  0  0  0  0  0           0  0  0
    2.9542   -2.0667    0.0000 C   0  0  0  0  0  0           0  0  0
    2.6542   -2.5917    0.0000 C   0  0  0  0  0  0           0  0  0
    2.0542   -2.5917    0.0000 C   0  0  0  0  0  0           0  0  0
  2  1  3  0     0  0
  3  2  1  0     0  0
  4  3  2  0     0  0
M  END
> <chembl_id>
CHEMBL445612

$$$$
CHEMBL457299
  SciTegic05201615392D

  4  3  0  0  0  0            999 V2000
    0.1923   -0.3572    0.0000 C   0  0
    1.0173   -0.3572    0.0000 O   0  0
   -0.2202    0.3572    0.0000 C   0  0
   -1.0452    0.3572    0.0000 O   0  0
  1  2  1  0
  1  3  1  0
  3  4  1  0
M  END
> <chembl_id>
CHEMBL457299

$$$$
CHEMBL452370
  CDK    9/16/09,9:44

  4  3  0  0  0  0  0  0  0  0999 V2000
   -3.8980   -9.7373    0.0000 C   0  0  0  0  0  0  0  0  0  0  0  0
   -3.1832   -9.3254    0.0000 C   0  0  0  0  0  0  0  0  0  0  0  0
   -2.4683   -9.7373    0.0000 Br  0  0  0  0  0  0  0  0  0  0  0  0
   -4.6087   -9.3254    0.0000 Br  0  0  0  0  0  0  0  0  0  0  0  0
  1  2  1  0  0  0  0 
  2  3  1  0  0  0  0 str
  1  4  1  0  0  0  0 
M  END
> <chembl_id>
CHEMBL452370

$$$$
CHEMBL451810
  CDK    9/16/09,9:44

  4  3  0  0  0  0  0  0  0  0999 V2000
   14.6826   -2.3175    0.0000 C   0  0  0  0  0  0  0  0  0  0  0  0
   14.2701   -3.0292    0.0000 C   0  0  0  0  0  0  0  0  0  0  0  0
   14.6826   -3.7450    0.0000 C   0  0  0  0  0  0  0  0  0  0  0  0
   13.4451   -3.0292    0.0000 Br  0  0  0  0  0  0  0  0  0  0  0  0
  1  2  1  0  0  0  0 
  2  3  1  0  0  0  0 
  2  4  1  0  0  0  0 
M  END
> <chembl_id>
CHEMBL451810

$$$$
CHEMBL451126
  CDK    9/16/09,9:44

  4  3  0  0  0  0  0  0  0  0999 V2000
   12.7208   -9.4110    0.0000 C   0  0  0  0  0  0  0  0  0  0  0  0
   13.4316   -9.8229    0.0000 C   0  0  0  0  0  0  0  0  0  0  0  0
   14.1464   -9.4110    0.0000 C   0  0  0  0  0  0  0  0  0  0  0  0
   14.8613   -9.8229    0.0000 Cl  0  0  0  0  0  0  0  0  0  0  0  0
  1  2  2  0  0  0  0 
  2  3  1  0  0  0  0 
  3  4  1  0  0  0  0 
M  END
> <chembl_id>
CHEMBL451126

$$$$
CHEMBL1794637
  SciTegic12201110432D

  4  3  0  0  0  0            999 V2000
   -0.7314    0.0919    0.0000 S   0  0
   -0.3189    0.8063    0.0000 O   0  0
   -0.3189   -0.6226    0.0000 O   0  0
   -1.5564    0.0919    0.0000 O   0  0
  2  1  2  0
  3  1  2  0
  4  1  1  0
M  END
> <chembl_id>
CHEMBL1794637

$$$$
CHEMBL1794794
  SciTegic12201110432D

  4  3  0  0  0  0            999 V2000
    2.7402  -24.0134    0.0000 N   0  0
    2.0257  -24.4259    0.0000 O   0  0
    3.4546  -24.4259    0.0000 O   0  0
    4.1691  -24.0134    0.0000 O   0  0
  1  2  2  0
  1  3  1  0
  3  4  1  0
M  END
> <chembl_id>
CHEMBL1794794

$$$$
CHEMBL468583
  Mrv0541 04051115152D          

  4  3  0  0  0  0            999 V2000
    0.9526   -0.3425    0.0000 O   0  0  0  0  0  0  0  0  0  0  0  0
    0.1276   -0.3425    0.0000 C   0  0  0  0  0  0  0  0  0  0  0  0
   -0.2849    0.3720    0.0000 C   0  0  0  0  0  0  0  0  0  0  0  0
   -1.1099    0.3720    0.0000 Br  0  0  0  0  0  0  0  0  0  0  0  0
  2  1  1  0  0  0  0
  3  2  1  0  0  0  0
  4  3  1  0  0  0  0
M  END
> <chembl_id>
CHEMBL468583

$$$$
CHEMBL506976
  CDK    9/16/09,9:44

  4  3  0  0  0  0  0  0  0  0999 V2000
    4.5035   -9.8169    0.0000 C   0  0  0  0  0  0  0  0  0  0  0  0
    5.2183   -9.4050    0.0000 C   0  0  0  0  0  0  0  0  0  0  0  0
    3.7928   -9.4050    0.0000 O   0  0  0  0  0  0  0  0  0  0  0  0
    5.9332   -9.8169    0.0000 Cl  0  0  0  0  0  0  0  0  0  0  0  0
  1  2  1  0  0  0  0 
  1  3  2  0  0  0  0 
  2  4  1  0  0  0  0 
M  END
> <chembl_id>
CHEMBL506976

$$$$
CHEMBL1207991
  SciTegic12231509382D

  4  3  0  0  0  0            999 V2000
    6.4250   -7.7708    0.0000 C   0  0
    6.0125   -8.4833    0.0000 S   0  0
    6.0125   -7.0500    0.0000 S   0  0
    7.2500   -7.7708    0.0000 S   0  0
  2  1  1  0
  3  1  1  0
  4  1  2  0
M  END
> <chembl_id>
CHEMBL1207991

$$$$
CHEMBL537970
  Mrv0541 05211314572D          

  4  3  0  0  0  0            999 V2000
    6.7426   -9.6333    0.0000 C   0  0  0  0  0  0  0  0  0  0  0  0
    5.9176   -9.6333    0.0000 C   0  0  0  0  0  0  0  0  0  0  0  0
    5.5051   -8.9188    0.0000 C   0  0  0  0  0  0  0  0  0  0  0  0
    4.6801   -8.9188    0.0000 C   0  0  0  0  0  0  0  0  0  0  0  0
  1  2  2  0  0  0  0
  2  3  1  0  0  0  0
  3  4  2  0  0  0  0
M  END
> <chembl_id>
CHEMBL537970

$$$$
CHEMBL542171
  SciTegic01161211242D

  4  1  0  0  0  0            999 V2000
    0.2606    0.1503    0.0000 N   0  0
    1.3000    0.7500    0.0000 N   0  0
    6.3000    0.3750    0.0000 Cl  0  0
    3.8000    0.3750    0.0000 Cl  0  0
  1  2  1  0
M  END
> <chembl_id>
CHEMBL542171

$$$$
CHEMBL1213044
  CDK    12/20/10,14:45

  4  3  0  0  0  0  0  0  0  0999 V2000
   -5.2417  -16.2458    0.0000 N   0  0  0  0  0  0  0  0  0  0  0  0
   -4.5292  -16.6625    0.0000 O   0  0  0  0  0  0  0  0  0  0  0  0
   -3.8125  -16.2458    0.0000 C   0  0  0  0  0  0  0  0  0  0  0  0
   -3.1000  -16.6625    0.0000 C   0  0  0  0  0  0  0  0  0  0  0  0
  2  1  1  0  0  0  0 
  3  2  1  0  0  0  0 
  4  3  1  0  0  0  0 
M  END
> <chembl_id>
CHEMBL1213044

$$$$
CHEMBL569461
  SciTegic07111214002D

  4  2  0  0  0  0            999 V2000
   12.9458   -5.2792    0.0000 N   0  0
   13.6603   -4.8667    0.0000 C   0  0
   12.2314   -4.8667    0.0000 C   0  0
   13.3208   -3.8083    0.0000 Cl  0  0
  1  3  1  0
  1  2  1  0
M  END
> <chembl_id>
CHEMBL569461

$$$$
CHEMBL1161699
  SciTegic12111210002D

  4  3  0  0  0  0            999 V2000
   -0.1208   -0.3125    0.0000 S   0  0
    1.1042   -1.0042    0.0000 O   0  0
   -0.1208    1.1500    0.0000 O   0  0
   -1.3458   -1.0542    0.0000 O   0  0
  2  1  1  0
  3  1  2  0
  4  1  1  0
M  END
> <chembl_id>
CHEMBL1161699

$$$$
CHEMBL1161632
  SciTegic01311418102D

  4  3  0  0  0  0            999 V2000
    1.1292    0.7083    0.0000 C   0  0
   -0.1458   -0.0250    0.0000 O   0  0
    1.1667    2.2083    0.0000 O   0  0
    2.1917   -0.0667    0.0000 O   0  0
  2  1  1  0
  3  1  2  0
  4  1  1  0
M  END
> <chembl_id>
CHEMBL1161632

$$$$
CHEMBL1161635
  SciTegic12231509382D

  4  3  0  0  0  0            999 V2000
    0.0000    0.8250    0.0000 O   0  0
    0.7145   -0.4125    0.0000 O   0  0
    0.0000    0.0000    0.0000 Br  0  0
   -0.7145   -0.4125    0.0000 O   0  0
  3  1  1  0
  3  2  2  0
  3  4  2  0
M  END
> <chembl_id>
CHEMBL1161635

$$$$
CHEMBL1161636
  SciTegic01161211252D

  4  3  0  0  0  0            999 V2000
   -0.2083    0.0000    0.0000 I   0  0
    0.6167    0.0000    0.0000 O   0  0
   -0.2083    0.8250    0.0000 O   0  0
   -0.2083   -0.8167    0.0000 O   0  0
  2  1  1  0
  3  1  2  0
  4  1  2  0
M  END
> <chembl_id>
CHEMBL1161636

$$$$
CHEMBL1162280
  SciTegic01161211252D

  4  3  0  0  0  0            999 V2000
   -0.1917    2.5833    0.0000 C   0  0
    0.5228    2.9958    0.0000 C   0  0
    1.2373    2.5833    0.0000 N   0  0
   -0.9061    2.9958    0.0000 F   0  0
  2  3  1  0
  1  2  1  0
  1  4  1  0
M  END
> <chembl_id>
CHEMBL1162280

$$$$
CHEMBL1193997
  SciTegic12231509382D

  4  3  0  0  0  0            999 V2000
    0.2606    0.1503    0.0000 N   0  0
    1.3000    0.7500    0.0000 C   0  0
    3.6394    0.9003    0.0000 N   0  0
    2.6000    1.5000    0.0000 C   0  0
  1  2  3  0
  2  4  1  0
  3  4  1  0
M  END
> <chembl_id>
CHEMBL1193997

$$$$
CHEMBL1190279
  SciTegic12231509382D

  4  3  0  0  0  0            999 V2000
    0.2606    0.1503    0.0000 N   0  0
    3.6394    0.5997    0.0000 Cl  0  0
    1.3000    0.7500    0.0000 C   0  0
    2.6000    0.0000    0.0000 C   0  0
  1  3  1  0
  2  4  1  0
  3  4  1  0
M  END
> <chembl_id>
CHEMBL1190279

$$$$
CHEMBL1200706
  SciTegic12231509382D

  4  0  0  0  0  0            999 V2000
    0.2750   -1.0917    0.0000 O   0  5
    1.2750   -2.5625    0.0000 O   0  5
   -0.6958   -2.6250    0.0000 O   0  5
    0.2125   -2.0000    0.0000 Al  0  1
M  CHG  4   1  -1   2  -1   3  -1   4   3
M  END
> <chembl_id>
CHEMBL1200706

$$$$
CHEMBL1200548
  SciTegic01161211252D

  4  0  0  0  0  0            999 V2000
    4.8917   -4.2500    0.0000 Cl  0  5
    2.3125   -4.2500    0.0000 Cl  0  5
    3.4958   -4.2500    0.0000 Mn  0  2
    6.0708   -4.2500    0.0000 O   0  0
M  CHG  3   1  -1   2  -1   3   2
M  END
> <chembl_id>
CHEMBL1200548

$$$$
CHEMBL1161633
  SciTegic12231509382D

  4  3  0  0  0  0            999 V2000
    0.8250   -0.7068    0.0000 Cl  0  0
    0.0000   -0.7068    0.0000 O   0  0
    1.2433    0.0000    0.0000 O   0  0
    1.2433   -1.4222    0.0000 O   0  0
  1  2  1  0
  1  3  2  0
  1  4  2  0
M  END
> <chembl_id>
CHEMBL1161633

$$$$
CHEMBL15697
          11280714462D 1   1.00000     0.00000     0

  4  3  0     0  0            999 V2000
    3.1667   -5.2125    0.0000 Cl  0  0  0  0  0  0           0  0  0
    3.8875   -5.6250    0.0000 C   0  0  0  0  0  0           0  0  0
    4.6000   -5.2125    0.0000 C   0  0  0  0  0  0           0  0  0
    5.3125   -5.6250    0.0000 C   0  0  0  0  0  0           0  0  0
  2  1  1  0     0  0
  3  2  1  0     0  0
  4  3  1  0     0  0
M  END
> <chembl_id>
CHEMBL15697

$$$$
CHEMBL296723
  Mrv0541 04051115152D          

  4  3  0  0  0  0            999 V2000
    1.0343   -0.3712    0.0000 N   0  0  0  0  0  0  0  0  0  0  0  0
    0.2093   -0.3712    0.0000 C   0  0  0  0  0  0  0  0  0  0  0  0
   -0.2032    0.3433    0.0000 C   0  0  0  0  0  0  0  0  0  0  0  0
   -1.0282    0.3433    0.0000 O   0  0  0  0  0  0  0  0  0  0  0  0
  2  1  1  0  0  0  0
  3  2  1  0  0  0  0
  3  4  2  0  0  0  0
M  END
> <chembl_id>
CHEMBL296723

$$$$
CHEMBL1235291
  SciTegic12231509382D

  4  3  0  0  1  0            999 V2000
    7.9800   -4.6429    0.0000 P   0  0
    7.5675   -5.3574    0.0000 O   0  0
    7.5675   -3.9285    0.0000 O   0  0
    8.8050   -4.6429    0.0000 O   0  0
  1  2  1  0
  1  3  1  0
  1  4  2  0
M  END
> <chembl_id>
CHEMBL1235291

$$$$
CHEMBL1230095
  Mrv0541 04051115152D          

  4  3  0  0  0  0            999 V2000
    1.0113   -0.3572    0.0000 Br  0  0  0  0  0  0  0  0  0  0  0  0
    0.1863   -0.3572    0.0000 C   0  0  0  0  0  0  0  0  0  0  0  0
   -0.2262    0.3572    0.0000 C   0  0  0  0  0  0  0  0  0  0  0  0
   -1.0512    0.3572    0.0000 C   0  0  0  0  0  0  0  0  0  0  0  0
  1  2  1  0  0  0  0
  2  3  1  0  0  0  0
  3  4  1  0  0  0  0
M  END
> <chembl_id>
CHEMBL1230095

$$$$
CHEMBL1236189
  SciTegic06231513582D

  4  3  0  0  0  0            999 V2000
    0.8250    0.0000    0.0000 As  0  0
    1.2375    0.7145    0.0000 O   0  0
    1.2375   -0.7145    0.0000 O   0  0
    0.0000    0.0000    0.0000 O   0  0
  1  2  1  0
  1  3  1  0
  1  4  1  0
M  END
> <chembl_id>
CHEMBL1236189

$$$$
CHEMBL1232589
  Mrv0541 04051115152D          

  4  3  0  0  0  0            999 V2000
    0.2044   -0.3491    0.0000 N   0  0  0  0  0  0  0  0  0  0  0  0
    1.0294   -0.3491    0.0000 C   0  0  0  0  0  0  0  0  0  0  0  0
   -0.2081    0.3654    0.0000 C   0  0  0  0  0  0  0  0  0  0  0  0
   -1.0331    0.3654    0.0000 C   0  0  0  0  0  0  0  0  0  0  0  0
  2  1  1  0  0  0  0
  3  1  1  0  0  0  0
  3  4  1  0  0  0  0
M  END
> <chembl_id>
CHEMBL1232589

$$$$
CHEMBL1236818
  Mrv0541 04051115152D          

  4  3  0  0  0  0            999 V2000
    1.2998   -0.3642    0.0000 C   0  0  0  0  0  0  0  0  0  0  0  0
    0.4748   -0.3642    0.0000 C   0  0  0  0  0  0  0  0  0  0  0  0
    0.0623    0.3503    0.0000 C   0  0  0  0  0  0  0  0  0  0  0  0
   -0.7627    0.3503    0.0000 S   0  0  0  0  0  0  0  0  0  0  0  0
  1  2  1  0  0  0  0
  2  3  1  0  0  0  0
  3  4  1  0  0  0  0
M  END
> <chembl_id>
CHEMBL1236818

$$$$
CHEMBL1347061
  SciTegic03291108482D

  4  3  0  0  0  0            999 V2000
    1.2794   -0.5633    0.0000 S   0  0
    0.8669    0.1512    0.0000 S   0  0
    2.1044   -0.5633    0.0000 C   0  0
    0.0419    0.1512    0.0000 C   0  0
  1  2  1  0
  1  3  1  0
  2  4  1  0
M  END
> <chembl_id>
CHEMBL1347061

$$$$
CHEMBL1359929
  SciTegic03291108492D

  4  3  0  0  0  0            999 V2000
    3.9188   -0.3572    0.0000 N   0  0
    4.7438   -0.3572    0.0000 N   0  0
    3.5063    0.3572    0.0000 C   0  0
    2.6813    0.3572    0.0000 C   0  0
  1  2  1  0
  1  3  1  0
  3  4  1  0
M  END
> <chembl_id>
CHEMBL1359929

$$$$
CHEMBL1385560
  SciTegic02161213572D

  4  3  0  0  0  0            999 V2000
    2.0601    0.7145    0.0000 Cl  0  0
    0.4101   -0.7145    0.0000 Cl  0  0
    1.6476    0.0000    0.0000 C   0  0
    0.8226    0.0000    0.0000 C   0  0
  3  1  1  0
  2  4  1  0
  3  4  2  3
M  END
> <chembl_id>
CHEMBL1385560

$$$$
CHEMBL1429506
  SciTegic03291108522D

  4  3  0  0  0  0            999 V2000
    2.1044   -0.5633    0.0000 Br  0  0
    1.2794   -0.5633    0.0000 C   0  0
    0.8669    0.1512    0.0000 C   0  0
    0.0419    0.1512    0.0000 C   0  0
  1  2  1  0
  2  3  1  0
  3  4  2  0
M  END
> <chembl_id>
CHEMBL1429506

$$$$
CHEMBL1451116
  SciTegic03291108522D

  4  3  0  0  0  0            999 V2000
    0.4121   -1.4287    0.0000 I   0  0
    0.4121    0.0002    0.0000 I   0  0
    1.6496   -0.7143    0.0000 I   0  0
    0.8246   -0.7143    0.0000 C   0  0
  1  4  1  0
  2  4  1  0
  3  4  1  0
M  END
> <chembl_id>
CHEMBL1451116

$$$$
CHEMBL1441128
  SciTegic03291108522D

  4  3  0  0  0  0            999 V2000
    1.6467   -0.7089    0.0000 Cl  0  0
   -0.0033   -0.7089    0.0000 Cl  0  0
    1.2342    0.0056    0.0000 C   0  0
    0.4092    0.0056    0.0000 C   0  0
  1  3  1  0
  2  4  1  0
  3  4  2  0
M  END
> <chembl_id>
CHEMBL1441128

$$$$
CHEMBL1538076
  SciTegic03291108562D

  4  4  0  0  0  0            999 V2000
    0.9959   -0.4125    0.0000 O   0  0
    0.4125   -0.9959    0.0000 C   0  0
    0.4125    0.1709    0.0000 C   0  0
   -0.1709   -0.4125    0.0000 C   0  0
  1  2  1  0
  1  3  1  0
  2  4  1  0
  3  4  1  0
M  END
> <chembl_id>
CHEMBL1538076

$$$$
CHEMBL1563026
  SciTegic03291108572D

  4  3  0  0  0  0            999 V2000
    1.8563   -1.0711    0.0000 O   0  0
    1.4438   -0.3566    0.0000 C   0  0
    0.6188   -0.3566    0.0000 C   0  0
   -0.2062   -0.3566    0.0000 C   0  0
  1  2  1  0
  2  3  1  0
  3  4  3  0
M  END
> <chembl_id>
CHEMBL1563026

$$$$
CHEMBL1606435
  SciTegic03291108582D

  4  3  0  0  0  0            999 V2000
    1.8957    0.5089    0.0000 O   0  0
    0.2457   -0.9200    0.0000 O   0  0
    1.4832   -0.2056    0.0000 C   0  0
    0.6582   -0.2056    0.0000 C   0  0
  1  3  2  0
  2  4  2  0
  3  4  1  0
M  END
> <chembl_id>
CHEMBL1606435

$$$$
CHEMBL1609430
  SciTegic03291108592D

  4  2  0  0  0  0            999 V2000
    0.0000    0.0000    0.0000 Cl  0  0
    2.9538   -0.2750    0.0000 O   0  0
    2.2393    0.1375    0.0000 N   0  0
    3.6682    0.1375    0.0000 C   0  0
  2  3  1  0
  2  4  1  0
M  END
> <chembl_id>
CHEMBL1609430

$$$$
CHEMBL1608558
  SciTegic03291108582D

  4  3  0  0  0  0            999 V2000
   -0.0608   -0.5914    0.0000 O   0  0
    1.5892   -0.5914    0.0000 N   0  0
    0.7642   -0.5914    0.0000 C   0  0
    2.0017    0.1231    0.0000 C   0  0
  1  3  2  0
  2  3  2  0
  2  4  1  0
M  END
> <chembl_id>
CHEMBL1608558

$$$$
CHEMBL1644028
  SciTegic12231509382D

  4  2  0  0  0  0            999 V2000
   -3.4417   -0.5583    0.0000 C   0  0
   -2.6167   -0.5583    0.0000 N   0  0
   -4.2667   -0.5583    0.0000 S   0  5
   -5.1270   -0.5604    0.0000 Na  0  3
  1  2  3  0
  1  3  1  0
M  CHG  2   3  -1   4   1
M  END
> <chembl_id>
CHEMBL1644028

$$$$
CHEMBL1644696
  SciTegic04151115542D

  4  2  0  0  0  0            999 V2000
   13.7250    1.8770    0.0000 Na  0  3
   15.5958    1.9083    0.0000 C   0  0
   16.4208    1.9083    0.0000 N   0  0
   14.7708    1.9083    0.0000 O   0  5
  2  3  3  0
  2  4  1  0
M  CHG  2   1   1   4  -1
M  END
> <chembl_id>
CHEMBL1644696

$$$$
CHEMBL1697693
  SciTegic06131110272D

  4  3  0  0  0  0            999 V2000
   -1.5321    2.0036    0.0000 Br  0  0
   -0.8177    2.4161    0.0000 C   0  0
   -0.1032    2.0036    0.0000 C   0  0
    0.6113    2.4161    0.0000 N   0  0
  1  2  1  0
  2  3  1  0
  3  4  1  0
M  END
> <chembl_id>
CHEMBL1697693

$$$$
CHEMBL1697721
  SciTegic06131110272D

  4  3  0  0  0  0            999 V2000
   -5.2741    2.9464    0.0000 C   0  0
   -4.4491    2.9464    0.0000 C   0  0
   -4.0366    2.2320    0.0000 N   0  0
   -4.0366    3.6609    0.0000 Cl  0  0
  1  2  1  0
  2  3  1  0
  2  4  1  0
M  END
> <chembl_id>
CHEMBL1697721

$$$$
CHEMBL1887585
  SciTegic02101213002D

  4  2  0  0  0  0            999 V2000
    0.0000    0.0000    0.0000 Cl  0  0
    3.0643    0.0000    0.0000 Na  0  3
   -0.8250    0.0000    0.0000 O   0  5
    0.8250    0.0000    0.0000 O   0  0
  1  3  1  0
  1  4  2  0
M  CHG  2   2   1   3  -1
M  END
> <chembl_id>
CHEMBL1887585

$$$$
CHEMBL1897156
  SciTegic02101213012D

  4  3  0  0  0  0            999 V2000
    1.2371    0.0002    0.0000 S   0  0
    0.8246   -0.7143    0.0000 C   0  0
    1.2371   -1.4287    0.0000 C   0  0
   -0.0004   -0.7143    0.0000 C   0  0
  1  2  1  0
  2  3  1  0
  2  4  1  0
M  END
> <chembl_id>
CHEMBL1897156

$$$$
CHEMBL1909078
  SciTegic01311214372D

  4  2  0  0  0  0            999 V2000
   -1.6205   -2.7991    0.0000 As  0  0
    0.2652   -2.8580    0.0000 Na  0  3
   -2.4455   -2.7991    0.0000 O   0  0
   -1.2080   -2.0846    0.0000 O   0  5
  1  3  2  0
  1  4  1  0
M  CHG  2   2   1   4  -1
M  END
> <chembl_id>
CHEMBL1909078

$$$$
CHEMBL1996746
  SciTegic06181209252D

  4  3  0  0  0  0            999 V2000
   -2.2095   -0.0257    0.0000 V   0  0
   -1.7970    0.6888    0.0000 O   0  0
   -1.7970   -0.7402    0.0000 O   0  0
   -3.0345   -0.0257    0.0000 O   0  0
  1  2  2  0
  1  3  2  0
  1  4  2  0
M  END
> <chembl_id>
CHEMBL1996746

$$$$
CHEMBL2009089
  SciTegic03151315062D

  4  3  0  0  0  0            999 V2000
   -0.6777    0.0000    0.0000 Se  0  0
    0.1473    0.0000    0.0000 O   0  0
   -1.0902    0.7145    0.0000 O   0  0
   -1.0902   -0.7145    0.0000 O   0  0
  1  2  1  0
  1  3  2  0
  1  4  1  0
M  END
> <chembl_id>
CHEMBL2009089

$$$$
CHEMBL2028259
  SciTegic10261211122D

  4  2  0  0  0  0            999 V2000
    3.4042   -5.1958    0.0000 As  0  0
    2.5792   -5.1958    0.0000 O   0  0
    4.2292   -5.1958    0.0000 O   0  5
    6.3500   -5.1958    0.0000 K   0  3
  2  1  2  0
  3  1  1  0
M  CHG  2   3  -1   4   1
M  END
> <chembl_id>
CHEMBL2028259

$$$$
CHEMBL2068408
  SciTegic10051218112D

  4  3  0  0  0  0            999 V2000
   -0.2083    0.0000    0.0000 Si  0  0
   -0.2083   -0.8167    0.0000 O   0  0
    0.6167    0.0000    0.0000 O   0  0
   -0.2083    0.8250    0.0000 O   0  0
  2  1  1  0
  3  1  1  0
  4  1  2  0
M  END
> <chembl_id>
CHEMBL2068408

$$$$
CHEMBL2096635
  SciTegic11211215462D

  4  3  0  0  0  0            999 V2000
    1.7585   -2.8533    0.0000 C   0  0
    1.7585   -2.0346    0.0000 O   0  0
    2.4706   -3.2699    0.0000 N   0  0
    1.0464   -3.2699    0.0000 N   0  0
  2  1  2  0
  3  1  1  0
  4  1  1  0
M  ISO  1   1  14
M  END
> <chembl_id>
CHEMBL2096635

$$$$
CHEMBL2069541
  SciTegic10161213532D

  4  2  0  0  0  0            999 V2000
    8.6917   -8.7417    0.0000 Se  0  0
    9.5167   -8.7417    0.0000 C   0  0
   10.3417   -8.7417    0.0000 N   0  5
   11.0938   -8.7812    0.0000 Na  0  3
  1  2  2  0
  2  3  2  0
M  CHG  2   3  -1   4   1
M  END
> <chembl_id>
CHEMBL2069541

$$$$
CHEMBL2096648
  SciTegic11211215462D

  4  3  0  0  0  0            999 V2000
    1.7585   -2.8533    0.0000 C   0  0
    1.7585   -2.0346    0.0000 O   0  0
    2.4706   -3.2699    0.0000 N   0  0
    1.0464   -3.2699    0.0000 N   0  0
  2  1  2  0
  3  1  1  0
  4  1  1  0
M  ISO  1   1  13
M  END
> <chembl_id>
CHEMBL2096648

$$$$
CHEMBL2171713
  SciTegic02011310452D

  4  4  0  0  0  0            999 V2000
    9.3159  -16.3151    0.0000 N   0  0
    8.4909  -16.3151    0.0000 C   0  0
    8.4909  -15.4901    0.0000 C   0  0
    9.3159  -15.4901    0.0000 C   0  0
  1  2  1  0
  2  3  1  0
  3  4  1  0
  1  4  1  0
M  END
> <chembl_id>
CHEMBL2171713

$$$$
CHEMBL2207072
  SciTegic02181312462D

  4  2  0  0  0  0            999 V2000
   13.6706   -1.5916    0.0000 S   0  0
   14.4956   -1.5916    0.0000 C   0  0
   15.3206   -1.5916    0.0000 N   0  5
   16.4411   -1.9152    0.0000 Na  0  3
  1  2  2  0
  2  3  2  0
M  CHG  2   3  -1   4   1
M  END
> <chembl_id>
CHEMBL2207072

$$$$
CHEMBL2146115
  SciTegic12231509382D

  4  2  0  0  0  0            999 V2000
   -4.7638   -0.0924    0.0000 P   0  0
   -4.0599   -0.4961    0.0000 O   0  5
   -4.7638    0.7461    0.0000 O   0  0
   -4.2088    0.1959    0.0000 Na  0  3
  2  1  1  0
  3  1  2  0
M  CHG  2   2  -1   4   1
M  END
> <chembl_id>
CHEMBL2146115

$$$$
CHEMBL2207071
  SciTegic02181312462D

  4  2  0  0  0  0            999 V2000
   10.2333   -1.8416    0.0000 C   0  5
   11.0583   -1.8416    0.0000 N   0  3
   11.8833   -1.8416    0.0000 O   0  5
    9.2223   -2.0625    0.0000 Na  0  3
  1  2  3  0
  2  3  1  0
M  CHG  4   1  -1   2   1   3  -1   4   1
M  END
> <chembl_id>
CHEMBL2207071

$$$$
CHEMBL2107006
  SciTegic11301210262D

  4  1  0  0  0  0            999 V2000
   -1.2250    0.9583    0.0000 Ca  0  0
   -2.2875    1.9208    0.0000 O   0  0
    2.5500   -0.5417    0.0000 O   0  5
   -2.7625   -1.8167    0.0000 Na  0  3
  2  1  2  0
M  CHG  2   3  -1   4   1
M  END
> <chembl_id>
CHEMBL2107006

$$$$
CHEMBL2106973
  SciTegic12231509382D

  4  2  0  0  0  0            999 V2000
    5.4125   -4.8167    0.0000 C   0  0
    6.1375   -4.8167    0.0000 N   0  0
    4.7042   -4.8167    0.0000 S   0  5
    3.4625   -4.9667    0.0000 K   0  3
  2  1  3  0
  3  1  1  0
M  CHG  2   3  -1   4   1
M  END
> <chembl_id>
CHEMBL2106973

$$$$
CHEMBL2106398
  SciTegic11301210262D

  4  3  0  0  0  0            999 V2000
    5.0750   -4.9625    0.0000 C   0  0
    4.4625   -5.3167    0.0000 C   0  0
    5.6875   -5.3042    0.0000 C   0  0
    5.0750   -4.2500    0.0000 C   0  0
  2  1  1  0
  3  1  1  0
  4  1  1  0
M  END
> <chembl_id>
CHEMBL2106398

$$$$
CHEMBL2219605
  SciTegic12091219312D

  4  0  0  0  0  0            999 V2000
   -1.5708   -1.2167    0.0000 Cl  0  5
    1.4625   -1.2167    0.0000 Cl  0  5
   -0.0333   -0.0917    0.0000 Cl  0  5
   -0.0083   -1.2167    0.0000 Fe  0  1
M  CHG  4   1  -1   2  -1   3  -1   4   3
M  END
> <chembl_id>
CHEMBL2219605

$$$$
CHEMBL2220705
  SciTegic12231509382D

  4  3  0  0  0  0            999 V2000
    1.7087   -2.2893    0.0000 F   0  0
    3.7160   -1.1447    0.0000 F   0  0
    1.7087    0.0000    0.0000 F   0  0
    2.3778   -1.1447    0.0000 B   0  0
  1  4  1  0
  2  4  1  0
  3  4  1  0
M  END
> <chembl_id>
CHEMBL2220705

$$$$
CHEMBL2139477
  SciTegic02261312082D

  4  3  0  0  0  0            999 V2000
    0.0000    0.0000    0.0000 Br  0  0
    3.3260   -1.1508    0.0000 N   0  0
    0.6652   -1.1508    0.0000 C   0  0
    1.9956   -1.1508    0.0000 C   0  0
  1  3  1  0
  2  4  3  0
  3  4  1  0
M  END
> <chembl_id>
CHEMBL2139477

$$$$
CHEMBL2448851
  SciTegic12201312392D

  4  4  0  0  0  0            999 V2000
   -1.7892   -1.0330    0.0000 C   0  0
   -0.7500   -0.4330    0.0000 N   0  0
    0.7500   -0.4330    0.0000 C   0  0
    0.0000    0.8660    0.0000 C   0  0
  1  2  1  0
  2  3  1  0
  3  4  1  0
  4  2  1  0
M  END
> <chembl_id>
CHEMBL2448851

$$$$
CHEMBL2448383
  SciTegic12181313002D

  4  4  0  0  0  0            999 V2000
    4.4459   -2.5851    0.0000 S   0  0
    4.4459   -3.4101    0.0000 C   0  0
    4.8584   -4.1245    0.0000 C   0  0
    4.0334   -4.1245    0.0000 B   0  0
  1  2  1  0
  2  3  1  0
  3  4  1  0
  4  2  1  0
M  END
> <chembl_id>
CHEMBL2448383

$$$$
CHEMBL2251584
  SciTegic05071316512D

  4  4  0  0  0  0            999 V2000
    5.7087   -5.3572    0.0000 C   0  0
    6.4231   -5.7697    0.0000 C   0  0
    7.2481   -5.7697    0.0000 C   0  0
    5.7087   -6.1822    0.0000 O   0  0
  1  2  1  0
  2  3  1  0
  1  4  1  0
  2  4  1  0
M  END
> <chembl_id>
CHEMBL2251584

$$$$
CHEMBL2227684
  SciTegic05071316162D

  4  3  0  0  0  0            999 V2000
    7.1615  -10.5729    0.0000 C   0  0
    6.7490  -11.2874    0.0000 C   0  0
    6.7490   -9.8585    0.0000 N   0  0
    7.9865  -10.5729    0.0000 N   0  0
  1  2  1  0
  1  3  2  0
  1  4  1  0
M  END
> <chembl_id>
CHEMBL2227684

$$$$
CHEMBL3222024
  SciTegic10011413212D

  4  3  0  0  0  0            999 V2000
   13.4045  -20.3674    0.0000 C   0  0
   14.1156  -19.9568    0.0000 C   0  0
   14.8267  -20.3674    0.0000 C   0  0
   12.6934  -19.9568    0.0000 S   0  0
  1  2  1  0
  2  3  2  0
  1  4  1  0
M  END
> <chembl_id>
CHEMBL3222024

$$$$
CHEMBL3183775


  4  4  0     1  0  0  0  0  0999 V2000
    1.5371   -0.8255    0.0000 N   0  0  0  0  0  0  0  0  0  0  0  0
    0.8224   -0.4120    0.0000 C   0  0  3  0  0  0  0  0  0  0  0  0
    1.5371    0.0000    0.0000 C   0  0  0  0  0  0  0  0  0  0  0  0
    0.0000   -0.4120    0.0000 C   0  0  0  0  0  0  0  0  0  0  0  0
  1  2  1  0  0  0  0
  1  3  1  0  0  0  0
  2  3  1  0  0  0  0
  2  4  1  0  0  0  0
M  END
> <chembl_id>
CHEMBL3183775

$$$$
CHEMBL3182512


  4  3  0     0  0  0  0  0  0999 V2000
    0.0000   -0.8247    0.0000 Si  0  0  0  0  0  0  0  0  0  0  0  0
    0.9798   -0.8247    0.0000 O   0  0  0  0  0  0  0  0  0  0  0  0
    0.0198    0.0000    0.0000 C   0  0  0  0  0  0  0  0  0  0  0  0
    0.0198   -1.6495    0.0000 C   0  0  0  0  0  0  0  0  0  0  0  0
  1  2  2  0  0  0  0
  1  3  1  0  0  0  0
  1  4  1  0  0  0  0
M  END
> <chembl_id>
CHEMBL3182512

$$$$
CHEMBL3185256


  4  3  0     0  0  0  0  0  0999 V2000
    2.1462    0.0000    0.0000 Cl  0  0  0  0  0  0  0  0  0  0  0  0
    0.7147    0.0000    0.0000 O   0  0  0  0  0  0  0  0  0  0  0  0
    1.4315   -0.4121    0.0000 C   0  0  0  0  0  0  0  0  0  0  0  0
    0.0000   -0.4121    0.0000 C   0  0  0  0  0  0  0  0  0  0  0  0
  1  3  1  0  0  0  0
  2  3  1  0  0  0  0
  2  4  1  0  0  0  0
M  END
> <chembl_id>
CHEMBL3185256

$$$$
CHEMBL3184620
  SciTegic12231509382D

  4  2  0  0  0  0            999 V2000
    1.2298   -0.2268    0.0000 K   0  3
    0.7178   -1.2397    0.0000 O   0  5
    0.0000    0.0000    0.0000 O   0  0
    0.0000   -0.8170    0.0000 C   0  0
  2  4  1  0
  3  4  2  0
M  CHG  2   1   1   2  -1
M  END
> <chembl_id>
CHEMBL3184620

$$$$
CHEMBL3187560
  SciTegic12231509382D

  4  2  0  0  0  0            999 V2000
    0.0000    0.0000    0.0000 S   0  5
    1.6500    0.0000    0.0000 N   0  0
    3.3266    0.0000    0.0000 N   0  3
    0.8250    0.0000    0.0000 C   0  0
  1  4  1  0
  2  4  3  0
M  CHG  2   1  -1   3   1
M  END
> <chembl_id>
CHEMBL3187560

$$$$
CHEMBL3187603


  4  3  0     0  0  0  0  0  0999 V2000
    0.0000   -1.2361    0.0000 Se  0  0  0  0  0  0  0  0  0  0  0  0
    0.7190    0.0000    0.0000 N   0  0  0  0  0  0  0  0  0  0  0  0
    1.4323   -1.2361    0.0000 N   0  0  0  0  0  0  0  0  0  0  0  0
    0.7190   -0.8250    0.0000 C   0  0  0  0  0  0  0  0  0  0  0  0
  1  4  2  0  0  0  0
  2  4  1  0  0  0  0
  3  4  1  0  0  0  0
M  END
> <chembl_id>
CHEMBL3187603

$$$$
CHEMBL3186418


  4  2  0     0  0  0  0  0  0999 V2000
    0.0000   -0.4186    0.0000 K   0  3  0  0  0  0  0  0  0  0  0  0
    1.5697   -0.4485    0.0000 O   0  5  0  0  0  0  0  0  0  0  0  0
    2.9899   -0.3887    0.0000 O   0  0  0  0  0  0  0  0  0  0  0  0
    2.2633    0.0000    0.0000 N   0  0  0  0  0  0  0  0  0  0  0  0
  2  4  1  0  0  0  0
  3  4  2  0  0  0  0
M  CHG  2   1   1   2  -1
M  END
> <chembl_id>
CHEMBL3186418

$$$$
CHEMBL3187297


  4  3  0     0  0  0  0  0  0999 V2000
    2.0625    0.0000    0.0000 Cl  0  0  0  0  0  0  0  0  0  0  0  0
    0.0000   -0.7136    0.0000 N   0  0  0  0  0  0  0  0  0  0  0  0
    1.6500   -0.7136    0.0000 C   0  0  0  0  0  0  0  0  0  0  0  0
    0.8250   -0.7136    0.0000 C   0  0  0  0  0  0  0  0  0  0  0  0
  1  3  1  0  0  0  0
  2  4  3  0  0  0  0
  3  4  1  0  0  0  0
M  END
> <chembl_id>
CHEMBL3187297

$$$$
CHEMBL3301667
  SciTegic11201417432D

  4  2  0  0  0  0            999 V2000
  -11.6900    2.3571    0.0000 N   0  5
  -10.9755    2.7696    0.0000 C   0  0
  -10.2611    3.1821    0.0000 N   0  5
   -8.8393    2.4750    0.0000 Ca  0  2
  1  2  2  0
  2  3  2  0
M  CHG  3   1  -1   3  -1   4   2
M  END
> <chembl_id>
CHEMBL3301667

$$$$
CHEMBL3263480
  SciTegic09291413392D

  4  3  0  0  0  0            999 V2000
   -2.1894    0.6610    0.0000 N   0  0
   -1.4750    1.0735    0.0000 C   0  0
   -0.7605    0.6610    0.0000 C   0  0
   -0.0460    0.2485    0.0000 C   0  0
  1  2  1  0
  2  3  1  0
  3  4  3  0
M  END
> <chembl_id>
CHEMBL3263480

$$$$
CHEMBL3884509
  SciTegic10231716142D

  4  3  0  0  0  0            999 V2000
   15.7997   -8.2980    0.0000 C   0  0
   16.5088   -7.8894    0.0000 C   0  0
   17.2179   -8.2980    0.0000 O   0  0
   15.0906   -7.8894    0.0000 O   0  0
  1  2  1  0
  2  3  1  0
  1  4  2  0
M  END
> <chembl_id>
CHEMBL3884509

$$$$
CHEMBL3833401
  SciTegic04051709442D

  4  3  0  0  0  0            999 V2000
    0.5760    5.4977    0.0000 Al  0  0
    0.5760    6.9977    0.0000 Cl  0  0
   -0.7230    4.7477    0.0000 Cl  0  0
    1.8751    4.7477    0.0000 Cl  0  0
  2  1  1  0
  3  1  1  0
  4  1  1  0
M  END
> <chembl_id>
CHEMBL3833401

$$$$
CHEMBL3971228
  SciTegic12231723462D

  4  2  0  0  0  0            999 V2000
    5.9120  -12.1759    0.0000 N   0  3
    8.0739  -12.2965    0.0000 C   0  0
    8.7888  -12.7085    0.0000 O   0  0
    7.3592  -12.7085    0.0000 O   0  5
  2  3  2  0
  2  4  1  0
M  CHG  2   1   1   4  -1
M  END
> <chembl_id>
CHEMBL3971228

$$$$
